Nitroethane
 OpenBabel01030815093D

 10  9  0  0  0  0  0  0  0  0999 V2000
    0.0733    0.2321    0.5550 C   0  0  0  0  0
   -0.8451   -0.9921    0.5606 N   0  0  0  0  0
   -0.3531   -2.0929    0.6965 O   0  0  0  0  0
   -2.0408   -0.8270    0.4369 O   0  0  0  0  0
    0.9381    0.0558    1.2300 H   0  0  0  0  0
   -0.4648    1.1083    0.9760 H   0  0  0  0  0
    0.5693    0.5568   -0.8391 C   0  0  0  0  0
    1.2250    1.4372   -0.8115 H   0  0  0  0  0
   -0.2536    0.7883   -1.5293 H   0  0  0  0  0
    1.1517   -0.2665   -1.2751 H   0  0  0  0  0
  1  2  1  0  0  0
  1  5  1  0  0  0
  1  6  1  0  0  0
  1  7  1  0  0  0
  2  3  2  0  0  0
  2  4  1  0  0  0
  7  8  1  0  0  0
  7  9  1  0  0  0
  7 10  1  0  0  0
M  END
