2-Methylbut-2-ene
 OpenBabel01030815083D

 15 14  0  0  0  0  0  0  0  0999 V2000
    1.1746    1.5276    0.0339 C   0  0  0  0  0
    0.3433    0.2931    0.0084 C   0  0  0  0  0
    1.1114   -0.9784    0.0041 C   0  0  0  0  0
   -0.9947    0.3633   -0.0092 C   0  0  0  0  0
   -1.9032   -0.8044   -0.0356 C   0  0  0  0  0
    1.8121    1.5469    0.9284 H   0  0  0  0  0
    0.5719    2.4454    0.0371 H   0  0  0  0  0
    1.8346    1.5679   -0.8435 H   0  0  0  0  0
    0.4675   -1.8675   -0.0139 H   0  0  0  0  0
    1.7464   -1.0479    0.8980 H   0  0  0  0  0
    1.7688   -1.0282   -0.8747 H   0  0  0  0  0
   -1.4796    1.3479   -0.0045 H   0  0  0  0  0
   -2.9556   -0.4937   -0.0456 H   0  0  0  0  0
   -1.7605   -1.4472    0.8445 H   0  0  0  0  0
   -1.7371   -1.4249   -0.9274 H   0  0  0  0  0
  1  2  1  0  0  0
  1  6  1  0  0  0
  1  7  1  0  0  0
  1  8  1  0  0  0
  2  3  1  0  0  0
  2  4  2  0  0  0
  3  9  1  0  0  0
  3 10  1  0  0  0
  3 11  1  0  0  0
  4  5  1  0  0  0
  4 12  1  0  0  0
  5 13  1  0  0  0
  5 14  1  0  0  0
  5 15  1  0  0  0
M  END
