(3E)-Penta-1,3-diene
 OpenBabel01030815083D

 13 12  0  0  0  0  0  0  0  0999 V2000
    2.6198   -0.1332   -0.2259 C   0  0  0  0  0
    1.4409    0.4845   -0.2667 C   0  0  0  0  0
    0.1936   -0.2019    0.0326 C   0  0  0  0  0
   -0.9886    0.4230   -0.0098 C   0  0  0  0  0
    2.7332   -1.1828    0.0312 H   0  0  0  0  0
    3.5532    0.3743   -0.4485 H   0  0  0  0  0
    0.2616   -1.2653    0.2976 H   0  0  0  0  0
   -2.2685   -0.2536    0.2899 C   0  0  0  0  0
   -2.7746    0.2366    1.1327 H   0  0  0  0  0
   -2.1439   -1.3135    0.5490 H   0  0  0  0  0
   -2.9429   -0.2010   -0.5755 H   0  0  0  0  0
    1.3717    1.5472   -0.5317 H   0  0  0  0  0
   -1.0554    1.4857   -0.2749 H   0  0  0  0  0
  1  2  2  0  0  0
  1  5  1  0  0  0
  1  6  1  0  0  0
  2  3  1  0  0  0
  2 12  1  0  0  0
  3  4  2  0  0  0
  3  7  1  0  0  0
  4  8  1  0  0  0
  4 13  1  0  0  0
  8  9  1  0  0  0
  8 10  1  0  0  0
  8 11  1  0  0  0
M  END
