(3Z)-Penta-1,3-diene
 OpenBabel01030815083D

 13 12  0  0  0  0  0  0  0  0999 V2000
    2.3008   -0.7597   -0.0779 C   0  0  0  0  0
    1.1153   -0.1553   -0.1049 C   0  0  0  0  0
   -0.1166   -0.8265    0.2789 C   0  0  0  0  0
   -1.3158   -0.2326    0.2565 C   0  0  0  0  0
    2.4351   -1.7929    0.2309 H   0  0  0  0  0
    3.2188   -0.2569   -0.3650 H   0  0  0  0  0
   -0.0287   -1.8725    0.5987 H   0  0  0  0  0
    1.0091    0.8948   -0.4233 H   0  0  0  0  0
   -1.5510    1.1678   -0.1558 C   0  0  0  0  0
   -2.2072   -0.7954    0.5586 H   0  0  0  0  0
   -0.6175    1.6784   -0.4463 H   0  0  0  0  0
   -2.0061    1.7413    0.6624 H   0  0  0  0  0
   -2.2361    1.2093   -1.0128 H   0  0  0  0  0
  1  2  2  0  0  0
  1  5  1  0  0  0
  1  6  1  0  0  0
  2  3  1  0  0  0
  2  8  1  0  0  0
  3  4  2  0  0  0
  3  7  1  0  0  0
  4  9  1  0  0  0
  4 10  1  0  0  0
  9 11  1  0  0  0
  9 12  1  0  0  0
  9 13  1  0  0  0
M  END
