But-1-ene
 OpenBabel01030815083D

 12 11  0  0  0  0  0  0  0  0999 V2000
    1.5190   -0.3950   -0.4362 C   0  0  0  0  0
    0.4541    0.5344    0.1050 C   0  0  0  0  0
   -0.7661   -0.2166    0.5083 C   0  0  0  0  0
   -1.9914    0.1304    0.1333 C   0  0  0  0  0
   -0.5973   -1.0899    1.1504 H   0  0  0  0  0
    1.8038   -1.1593    0.2990 H   0  0  0  0  0
    2.4283    0.1577   -0.7050 H   0  0  0  0  0
    1.1758   -0.9209   -1.3364 H   0  0  0  0  0
    0.8366    1.0800    0.9911 H   0  0  0  0  0
   -2.1999    0.9836   -0.5066 H   0  0  0  0  0
   -2.8758   -0.4179    0.4427 H   0  0  0  0  0
    0.2129    1.3135   -0.6456 H   0  0  0  0  0
  2  1  1  0  0  0
  1  6  1  0  0  0
  1  7  1  0  0  0
  1  8  1  0  0  0
  2  3  1  0  0  0
  2  9  1  0  0  0
  2 12  1  0  0  0
  3  5  1  0  0  0
  4  3  2  0  0  0
  4 10  1  0  0  0
  4 11  1  0  0  0
M  END
