Cyclopenta-1,3-diene
 OpenBabel01030815083D

 11 11  0  0  0  0  0  0  0  0999 V2000
    0.6431    1.1413   -0.0261 C   0  0  0  0  0
    1.1860   -0.0970    0.0068 C   0  0  0  0  0
   -0.8165    1.0243   -0.0285 C   0  0  0  0  0
   -1.1554   -0.2847    0.0030 C   0  0  0  0  0
    0.0901   -1.1241    0.0283 C   0  0  0  0  0
    1.1672    2.0944   -0.0480 H   0  0  0  0  0
    2.2401   -0.3639    0.0173 H   0  0  0  0  0
   -1.4859    1.8816   -0.0523 H   0  0  0  0  0
   -2.1535   -0.7160    0.0101 H   0  0  0  0  0
    0.1457   -1.7998   -0.8443 H   0  0  0  0  0
    0.1393   -1.7560    0.9336 H   0  0  0  0  0
  1  2  2  0  0  0
  1  3  1  0  0  0
  1  6  1  0  0  0
  2  5  1  0  0  0
  2  7  1  0  0  0
  3  4  2  0  0  0
  3  8  1  0  0  0
  4  5  1  0  0  0
  4  9  1  0  0  0
  5 10  1  0  0  0
  5 11  1  0  0  0
M  END
