Cyclohexa-1,3-diene
 OpenBabel01030815083D

 14 14  0  0  0  0  0  0  0  0999 V2000
    0.3324    1.5380    0.0876 C   0  0  0  0  0
   -1.0551    1.1646   -0.1173 C   0  0  0  0  0
   -1.4228   -0.1229   -0.1008 C   0  0  0  0  0
   -0.4497   -1.2184    0.1506 C   0  0  0  0  0
    0.5588    2.5993    0.2301 H   0  0  0  0  0
   -1.7804    1.9679   -0.2803 H   0  0  0  0  0
   -2.4682   -0.4170   -0.2413 H   0  0  0  0  0
   -0.7210   -2.1053   -0.4549 H   0  0  0  0  0
   -0.5696   -1.5319    1.2082 H   0  0  0  0  0
    0.9986   -0.8340   -0.1281 C   0  0  0  0  0
    1.2937    0.6058    0.0957 C   0  0  0  0  0
    1.2646   -1.0670   -1.1798 H   0  0  0  0  0
    1.6732   -1.4547    0.4936 H   0  0  0  0  0
    2.3456    0.8757    0.2369 H   0  0  0  0  0
  1  2  1  0  0  0
  1  5  1  0  0  0
  1 11  2  0  0  0
  2  3  2  0  0  0
  2  6  1  0  0  0
  3  4  1  0  0  0
  3  7  1  0  0  0
  4  8  1  0  0  0
  4  9  1  0  0  0
 10  4  1  0  0  0
 11 10  1  0  0  0
 10 12  1  0  0  0
 10 13  1  0  0  0
 11 14  1  0  0  0
M  END
