Cycloocta-1,3,5,7-tetraene
 OpenBabel01030815083D

 16 16  0  0  0  0  0  0  0  0999 V2000
    0.1915    1.6543    0.3519 C   0  0  0  0  0
   -0.8652    1.3365   -0.6014 C   0  0  0  0  0
   -1.5734    0.2049   -0.6151 C   0  0  0  0  0
    0.0181    2.5652    0.9389 H   0  0  0  0  0
   -1.0758    2.1289   -1.3308 H   0  0  0  0  0
   -2.3702    0.0607   -1.3558 H   0  0  0  0  0
    1.3132    0.9500    0.5190 C   0  0  0  0  0
    2.0687    1.2777    1.2444 H   0  0  0  0  0
    1.6678   -0.2535   -0.2242 C   0  0  0  0  0
    0.9598   -1.3852   -0.2379 C   0  0  0  0  0
    2.6104   -0.1845   -0.7819 H   0  0  0  0  0
    1.3163   -2.2533   -0.8067 H   0  0  0  0  0
   -0.2858   -1.6053    0.4877 C   0  0  0  0  0
   -1.4077   -0.9013    0.3205 C   0  0  0  0  0
   -0.2585   -2.4411    1.1984 H   0  0  0  0  0
   -2.3093   -1.1539    0.8929 H   0  0  0  0  0
  1  2  1  0  0  0
  1  4  1  0  0  0
  1  7  2  0  0  0
  2  3  2  0  0  0
  2  5  1  0  0  0
  3  6  1  0  0  0
  3 14  1  0  0  0
  7  8  1  0  0  0
  7  9  1  0  0  0
  9 10  2  0  0  0
  9 11  1  0  0  0
 10 12  1  0  0  0
 10 13  1  0  0  0
 14 13  2  0  0  0
 13 15  1  0  0  0
 14 16  1  0  0  0
M  END
