(E)-But-2-ene
 OpenBabel01030815083D

 12 11  0  0  0  0  0  0  0  0999 V2000
    1.8401   -0.4555   -0.3434 C   0  0  0  0  0
    0.5388    0.2471   -0.3058 C   0  0  0  0  0
   -0.5388   -0.2470    0.3062 C   0  0  0  0  0
   -1.8401    0.4556    0.3435 C   0  0  0  0  0
   -0.5014   -1.2169    0.8178 H   0  0  0  0  0
    1.8226   -1.4195    0.1825 H   0  0  0  0  0
    2.6235    0.1600    0.1190 H   0  0  0  0  0
    2.1427   -0.6499   -1.3813 H   0  0  0  0  0
    0.5014    1.2167   -0.8179 H   0  0  0  0  0
   -1.8226    1.4191   -0.1831 H   0  0  0  0  0
   -2.1428    0.6505    1.3812 H   0  0  0  0  0
   -2.6234   -0.1602   -0.1186 H   0  0  0  0  0
  2  1  1  0  0  0
  1  6  1  0  0  0
  1  7  1  0  0  0
  1  8  1  0  0  0
  2  3  2  0  0  0
  2  9  1  0  0  0
  3  4  1  0  0  0
  3  5  1  0  0  0
  4 10  1  0  0  0
  4 11  1  0  0  0
  4 12  1  0  0  0
M  END
