(E)-Hept-2-ene
 OpenBabel01030815083D

 21 20  0  0  0  0  0  0  0  0999 V2000
    3.7000    0.2238    1.0762 C   0  0  0  0  0
    2.2337    0.2830    1.2635 C   0  0  0  0  0
    1.3741   -0.3857    0.4933 C   0  0  0  0  0
   -0.0985   -0.3406    0.6984 C   0  0  0  0  0
   -0.8268   -0.0775   -0.6116 C   0  0  0  0  0
   -2.3340   -0.0616   -0.4126 C   0  0  0  0  0
   -3.0610    0.1914   -1.7139 C   0  0  0  0  0
    4.1068    1.2286    0.8995 H   0  0  0  0  0
    3.9990   -0.4082    0.2293 H   0  0  0  0  0
    4.1868   -0.1760    1.9760 H   0  0  0  0  0
    1.8799    0.9159    2.0871 H   0  0  0  0  0
    1.7258   -1.0151   -0.3344 H   0  0  0  0  0
   -0.3775    0.4274    1.4483 H   0  0  0  0  0
   -0.4229   -1.3105    1.1280 H   0  0  0  0  0
   -0.5531   -0.8476   -1.3606 H   0  0  0  0  0
   -0.4918    0.8871   -1.0420 H   0  0  0  0  0
   -2.6080    0.7132    0.3309 H   0  0  0  0  0
   -2.6663   -1.0238    0.0257 H   0  0  0  0  0
   -2.8407   -0.5851   -2.4585 H   0  0  0  0  0
   -2.7769    1.1558   -2.1557 H   0  0  0  0  0
   -4.1485    0.2056   -1.5669 H   0  0  0  0  0
  1  2  1  0  0  0
  1  8  1  0  0  0
  1  9  1  0  0  0
  1 10  1  0  0  0
  2  3  2  0  0  0
  2 11  1  0  0  0
  3  4  1  0  0  0
  3 12  1  0  0  0
  4  5  1  0  0  0
  4 13  1  0  0  0
  4 14  1  0  0  0
  5  6  1  0  0  0
  5 15  1  0  0  0
  5 16  1  0  0  0
  6  7  1  0  0  0
  6 17  1  0  0  0
  6 18  1  0  0  0
  7 19  1  0  0  0
  7 20  1  0  0  0
  7 21  1  0  0  0
M  END
