Hex-1-ene
 OpenBabel01030815083D

 18 17  0  0  0  0  0  0  0  0999 V2000
    2.9350    0.3196    1.4241 C   0  0  0  0  0
    2.0762   -0.3530    0.6674 C   0  0  0  0  0
    0.6026   -0.3080    0.8708 C   0  0  0  0  0
   -0.1243   -0.0432   -0.4395 C   0  0  0  0  0
   -1.6317   -0.0272   -0.2413 C   0  0  0  0  0
   -2.3582    0.2291   -1.5423 C   0  0  0  0  0
    2.6297    0.9650    2.2434 H   0  0  0  0  0
    2.4257   -0.9903   -0.1542 H   0  0  0  0  0
    0.3249    0.4596    1.6214 H   0  0  0  0  0
    0.2775   -1.2779    1.2995 H   0  0  0  0  0
    0.1496   -0.8126   -1.1892 H   0  0  0  0  0
    0.2111    0.9217   -0.8686 H   0  0  0  0  0
   -1.9057    0.7461    0.5038 H   0  0  0  0  0
   -1.9646   -0.9902    0.1946 H   0  0  0  0  0
   -2.1375   -0.5455   -2.2889 H   0  0  0  0  0
   -2.0740    1.1947   -1.9815 H   0  0  0  0  0
    4.0093    0.2694    1.2760 H   0  0  0  0  0
   -3.4456    0.2428   -1.3956 H   0  0  0  0  0
  1  2  2  0  0  0
  1  7  1  0  0  0
  1 17  1  0  0  0
  2  3  1  0  0  0
  2  8  1  0  0  0
  3  4  1  0  0  0
  3  9  1  0  0  0
  3 10  1  0  0  0
  4  5  1  0  0  0
  4 11  1  0  0  0
  4 12  1  0  0  0
  5  6  1  0  0  0
  5 13  1  0  0  0
  5 14  1  0  0  0
  6 15  1  0  0  0
  6 16  1  0  0  0
  6 18  1  0  0  0
M  END
