Propene
 OpenBabel01030815083D

  9  8  0  0  0  0  0  0  0  0999 V2000
    1.8605   -0.1342    1.4357 H   0  0  0  0  0
    1.2616   -0.0256    0.5369 C   0  0  0  0  0
    1.8426    0.1350   -0.3673 H   0  0  0  0  0
   -0.0649   -0.0847    0.5477 C   0  0  0  0  0
   -0.6126   -0.2487    1.4835 H   0  0  0  0  0
   -0.8966    0.0611   -0.6678 C   0  0  0  0  0
   -0.3007    0.2245   -1.5756 H   0  0  0  0  0
   -1.5056   -0.8386   -0.8282 H   0  0  0  0  0
   -1.5843    0.9112   -0.5648 H   0  0  0  0  0
  1  2  1  0  0  0
  2  3  1  0  0  0
  2  4  2  0  0  0
  4  5  1  0  0  0
  4  6  1  0  0  0
  6  7  1  0  0  0
  6  8  1  0  0  0
  6  9  1  0  0  0
M  END
