(Z)-Cyclooctene
 OpenBabel01030815083D

 22 22  0  0  0  0  0  0  0  0999 V2000
   -1.6693   -1.8060    1.0500 H   0  0  0  0  0
   -0.9089   -1.0776    0.7052 C   0  0  0  0  0
   -0.0950   -1.6938    0.2623 H   0  0  0  0  0
   -0.3779   -0.3326    1.9176 C   0  0  0  0  0
   -1.2233    0.1825    2.4202 H   0  0  0  0  0
    0.0049   -1.0686    2.6552 H   0  0  0  0  0
    0.6962    0.6711    1.7033 C   0  0  0  0  0
    0.8226    1.3454    2.5628 H   0  0  0  0  0
    1.5127    0.8509    0.6649 C   0  0  0  0  0
    2.2431    1.6691    0.7221 H   0  0  0  0  0
    1.5533    0.0793   -0.6060 C   0  0  0  0  0
    2.5767    0.1393   -1.0251 H   0  0  0  0  0
    1.3750   -1.0021   -0.4165 H   0  0  0  0  0
    0.5472    0.6204   -1.6188 C   0  0  0  0  0
    1.0018    0.6029   -2.6291 H   0  0  0  0  0
    0.3353    1.6878   -1.4079 H   0  0  0  0  0
   -0.7547   -0.1648   -1.6628 C   0  0  0  0  0
   -1.3982    0.2669   -2.4556 H   0  0  0  0  0
   -0.5559   -1.2086   -1.9809 H   0  0  0  0  0
   -1.5224   -0.1605   -0.3492 C   0  0  0  0  0
   -2.5654   -0.4775   -0.5463 H   0  0  0  0  0
   -1.5978    0.8767    0.0347 H   0  0  0  0  0
  1  2  1  0  0  0
  2  3  1  0  0  0
  2  4  1  0  0  0
  2 20  1  0  0  0
  4  5  1  0  0  0
  4  6  1  0  0  0
  4  7  1  0  0  0
  7  8  1  0  0  0
  7  9  2  0  0  0
  9 10  1  0  0  0
  9 11  1  0  0  0
 11 12  1  0  0  0
 11 13  1  0  0  0
 11 14  1  0  0  0
 14 15  1  0  0  0
 14 16  1  0  0  0
 14 17  1  0  0  0
 17 18  1  0  0  0
 17 19  1  0  0  0
 17 20  1  0  0  0
 20 21  1  0  0  0
 20 22  1  0  0  0
M  END
