(Z)-Hept-2-ene
 OpenBabel01030815083D

 21 20  0  0  0  0  0  0  0  0999 V2000
   -0.8831    0.1025    2.0776 H   0  0  0  0  0
   -1.3391    0.0233    1.0825 C   0  0  0  0  0
   -0.3979   -0.0041   -0.0685 C   0  0  0  0  0
   -2.6680   -0.0415    0.9781 C   0  0  0  0  0
   -3.2799   -0.0177    1.8884 H   0  0  0  0  0
   -3.4261   -0.1554   -0.2860 C   0  0  0  0  0
   -0.5663   -0.9235   -0.6664 H   0  0  0  0  0
    1.0540    0.0618    0.3816 C   0  0  0  0  0
   -0.6194    0.8420   -0.7519 H   0  0  0  0  0
   -3.8746   -1.1547   -0.3710 H   0  0  0  0  0
   -2.8071    0.0055   -1.1791 H   0  0  0  0  0
   -4.2431    0.5778   -0.3155 H   0  0  0  0  0
    1.2256    0.9798    0.9788 H   0  0  0  0  0
    2.0015    0.0330   -0.8072 C   0  0  0  0  0
    1.2790   -0.7824    1.0638 H   0  0  0  0  0
    3.4459    0.1024   -0.3657 C   0  0  0  0  0
    1.7740    0.8750   -1.4910 H   0  0  0  0  0
    1.8316   -0.8864   -1.4022 H   0  0  0  0  0
    4.1268    0.0826   -1.2261 H   0  0  0  0  0
    3.7122   -0.7426    0.2831 H   0  0  0  0  0
    3.6540    1.0226    0.1965 H   0  0  0  0  0
  1  2  1  0  0  0
  2  3  1  0  0  0
  2  4  2  0  0  0
  3  7  1  0  0  0
  3  8  1  0  0  0
  3  9  1  0  0  0
  4  5  1  0  0  0
  4  6  1  0  0  0
  6 10  1  0  0  0
  6 11  1  0  0  0
  6 12  1  0  0  0
  8 13  1  0  0  0
  8 14  1  0  0  0
  8 15  1  0  0  0
 14 16  1  0  0  0
 14 17  1  0  0  0
 14 18  1  0  0  0
 16 19  1  0  0  0
 16 20  1  0  0  0
 16 21  1  0  0  0
M  END
