(Z)-Oct-3-ene
 OpenBabel01030815083D

 24 23  0  0  0  0  0  0  0  0999 V2000
   -0.2242    0.1759    2.1111 H   0  0  0  0  0
   -0.6746    0.1133    1.1128 C   0  0  0  0  0
    0.2626   -0.0413   -0.0297 C   0  0  0  0  0
   -2.0022    0.1763    0.9816 C   0  0  0  0  0
   -2.6322    0.2900    1.8723 H   0  0  0  0  0
   -2.7105    0.1013   -0.3228 C   0  0  0  0  0
    0.0276   -0.9802   -0.5743 H   0  0  0  0  0
    1.7163   -0.0459    0.4172 C   0  0  0  0  0
    0.0917    0.7755   -0.7628 H   0  0  0  0  0
   -2.4395   -0.8463   -0.8337 H   0  0  0  0  0
   -2.3428    0.9107   -0.9877 H   0  0  0  0  0
   -4.2121    0.1980   -0.1677 C   0  0  0  0  0
    1.9481    0.8900    0.9642 H   0  0  0  0  0
    2.6571   -0.2005   -0.7671 C   0  0  0  0  0
    1.8874   -0.8648    1.1443 H   0  0  0  0  0
    4.1041   -0.1999   -0.3286 C   0  0  0  0  0
    2.4824    0.6154   -1.4966 H   0  0  0  0  0
    2.4270   -1.1385   -1.3107 H   0  0  0  0  0
    4.7802   -0.3097   -1.1860 H   0  0  0  0  0
    4.3172   -1.0241    0.3652 H   0  0  0  0  0
    4.3721    0.7340    0.1833 H   0  0  0  0  0
   -4.7151    0.1434   -1.1415 H   0  0  0  0  0
   -4.5113    1.1433    0.3041 H   0  0  0  0  0
   -4.6092   -0.6158    0.4532 H   0  0  0  0  0
  1  2  1  0  0  0
  2  3  1  0  0  0
  2  4  2  0  0  0
  3  7  1  0  0  0
  3  8  1  0  0  0
  3  9  1  0  0  0
  4  5  1  0  0  0
  4  6  1  0  0  0
  6 10  1  0  0  0
  6 11  1  0  0  0
  6 12  1  0  0  0
  8 13  1  0  0  0
  8 14  1  0  0  0
  8 15  1  0  0  0
 12 22  1  0  0  0
 12 23  1  0  0  0
 12 24  1  0  0  0
 14 16  1  0  0  0
 14 17  1  0  0  0
 14 18  1  0  0  0
 16 19  1  0  0  0
 16 20  1  0  0  0
 16 21  1  0  0  0
M  END
