1,1,1-Trichloroacetonitrile
 OpenBabel01030815093D

  6  5  0  0  0  0  0  0  0  0999 V2000
    0.3877   -0.0291    0.0036 C   0  0  0  0  0
   -1.0574    0.0795   -0.0099 C   0  0  0  0  0
   -2.2155    0.1664   -0.0207 N   0  0  0  0  0
    0.9964    0.1847   -1.6367 Cl  0  0  0  0  0
    0.8396   -1.6222    0.6076 Cl  0  0  0  0  0
    1.0492    1.2207    1.0560 Cl  0  0  0  0  0
  1  2  1  0  0  0
  1  4  1  0  0  0
  1  5  1  0  0  0
  1  6  1  0  0  0
  2  3  3  0  0  0
M  END
