Acetonitrile
 OpenBabel01030815093D

  6  5  0  0  0  0  0  0  0  0999 V2000
    0.4818   -0.0078    0.0003 C   0  0  0  0  0
   -0.9584    0.0155   -0.0005 C   0  0  0  0  0
   -2.1177    0.0342   -0.0012 N   0  0  0  0  0
    0.8682    0.2280    1.0006 H   0  0  0  0  0
    0.8772    0.7310   -0.7092 H   0  0  0  0  0
    0.8488   -1.0010   -0.2900 H   0  0  0  0  0
  1  2  1  0  0  0
  1  4  1  0  0  0
  1  5  1  0  0  0
  1  6  1  0  0  0
  2  3  3  0  0  0
M  END
