Butanenitrile
 OpenBabel01030815093D

 12 11  0  0  0  0  0  0  0  0999 V2000
    0.3552    0.4419   -0.1946 C   0  0  0  0  0
   -0.9734   -0.2238    0.1441 C   0  0  0  0  0
   -2.0901    0.6536   -0.1390 C   0  0  0  0  0
   -2.9864    1.3532   -0.3648 N   0  0  0  0  0
    0.3715    0.7363   -1.2623 H   0  0  0  0  0
    1.5116   -0.4851    0.1054 C   0  0  0  0  0
    0.4650    1.3841    0.3774 H   0  0  0  0  0
   -1.0111   -0.5092    1.2152 H   0  0  0  0  0
   -1.1051   -1.1607   -0.4346 H   0  0  0  0  0
    2.4709   -0.0109   -0.1379 H   0  0  0  0  0
    1.4484   -1.4147   -0.4758 H   0  0  0  0  0
    1.5435   -0.7647    1.1669 H   0  0  0  0  0
  1  2  1  0  0  0
  1  5  1  0  0  0
  1  6  1  0  0  0
  1  7  1  0  0  0
  2  3  1  0  0  0
  2  8  1  0  0  0
  2  9  1  0  0  0
  3  4  3  0  0  0
  6 10  1  0  0  0
  6 11  1  0  0  0
  6 12  1  0  0  0
M  END
