2-Methylpropanenitrile
 OpenBabel01030815093D

 12 11  0  0  0  0  0  0  0  0999 V2000
    0.0167    0.2588   -0.3896 C   0  0  0  0  0
   -1.2832   -0.3880    0.0685 C   0  0  0  0  0
    0.0220    0.3316   -1.5060 H   0  0  0  0  0
    1.2232   -0.5480    0.0699 C   0  0  0  0  0
    0.1036    1.6217    0.1181 C   0  0  0  0  0
   -1.3314   -0.4776    1.1618 H   0  0  0  0  0
   -1.3774   -1.3992   -0.3488 H   0  0  0  0  0
    2.1652   -0.0905   -0.2576 H   0  0  0  0  0
    1.1863   -1.5645   -0.3432 H   0  0  0  0  0
    1.2611   -0.6387    1.1635 H   0  0  0  0  0
    0.1730    2.7066    0.5192 N   0  0  0  0  0
   -2.1592    0.1877   -0.2557 H   0  0  0  0  0
  1  2  1  0  0  0
  1  3  1  0  0  0
  1  4  1  0  0  0
  1  5  1  0  0  0
  2  6  1  0  0  0
  2  7  1  0  0  0
  2 12  1  0  0  0
  4  8  1  0  0  0
  4  9  1  0  0  0
  4 10  1  0  0  0
  5 11  3  0  0  0
M  END
