Propanenitrile
 OpenBabel01030815093D

  9  8  0  0  0  0  0  0  0  0999 V2000
    0.9911    0.1731   -0.0468 C   0  0  0  0  0
   -0.3523   -0.5057    0.1242 C   0  0  0  0  0
   -1.4466    0.4185   -0.0938 C   0  0  0  0  0
   -2.3231    1.1565   -0.2681 N   0  0  0  0  0
    1.1165    0.5838   -1.0570 H   0  0  0  0  0
    1.8071   -0.5414    0.1217 H   0  0  0  0  0
    1.1254    0.9998    0.6627 H   0  0  0  0  0
   -0.4546   -0.9337    1.1417 H   0  0  0  0  0
   -0.4633   -1.3510   -0.5845 H   0  0  0  0  0
  1  2  1  0  0  0
  1  5  1  0  0  0
  1  6  1  0  0  0
  1  7  1  0  0  0
  2  3  1  0  0  0
  2  8  1  0  0  0
  2  9  1  0  0  0
  3  4  3  0  0  0
M  END
