1-[10-(3-Dimethylaminopropyl)phenothiazin-2-yl]ethanone
 OpenBabel01030815093D

 45 47  0  0  0  0  0  0  0  0999 V2000
    2.9652   -0.7180    1.2133 C   0  0  0  0  0
    4.1746   -1.3863    1.0975 C   0  0  0  0  0
    4.1997   -2.7567    0.8637 C   0  0  0  0  0
    3.0038   -3.4496    0.7557 C   0  0  0  0  0
    1.7790   -2.7887    0.8799 C   0  0  0  0  0
    1.7413   -1.4020    1.1009 C   0  0  0  0  0
    2.9834    0.3651    1.4097 H   0  0  0  0  0
    5.1127   -0.8291    1.1927 H   0  0  0  0  0
    5.1534   -3.2856    0.7686 H   0  0  0  0  0
    3.0117   -4.5323    0.5745 H   0  0  0  0  0
    0.3668   -3.8191    0.7620 S   0  0  0  0  0
   -0.7712   -1.2666    0.9360 C   0  0  0  0  0
   -0.9286   -2.6443    0.7107 C   0  0  0  0  0
   -1.9169   -0.4517    0.8920 C   0  0  0  0  0
   -2.1944   -3.1712    0.4375 C   0  0  0  0  0
   -3.1732   -0.9835    0.6200 C   0  0  0  0  0
   -3.3102   -2.3537    0.3909 C   0  0  0  0  0
   -1.8424    0.6304    1.0944 H   0  0  0  0  0
   -2.2989   -4.2498    0.2613 H   0  0  0  0  0
   -4.3731   -0.0931    0.5907 C   0  0  0  0  0
   -4.3066   -2.7679    0.1742 H   0  0  0  0  0
    0.5006   -0.6831    1.3145 N   0  0  0  0  0
    0.5878    0.8032    1.2080 C   0  0  0  0  0
    0.7092    1.3265   -0.2191 C   0  0  0  0  0
    1.4564    1.1396    1.8179 H   0  0  0  0  0
   -0.3109    1.2387    1.7006 H   0  0  0  0  0
    0.7399    2.8541   -0.2224 C   0  0  0  0  0
   -0.1352    0.9569   -0.8371 H   0  0  0  0  0
    1.6329    0.9352   -0.7077 H   0  0  0  0  0
    1.4707    3.2264    0.5239 H   0  0  0  0  0
   -0.2470    3.2636    0.0719 H   0  0  0  0  0
    1.1193    3.4650   -1.5244 N   0  0  0  0  0
    0.0924    3.2999   -2.5765 C   0  0  0  0  0
    2.4701    3.0458   -1.9644 C   0  0  0  0  0
    0.3732    3.9065   -3.4472 H   0  0  0  0  0
   -0.8733    3.6644   -2.2031 H   0  0  0  0  0
   -0.0374    2.2585   -2.9095 H   0  0  0  0  0
    3.2118    3.5044   -1.2980 H   0  0  0  0  0
    2.6646    3.3912   -2.9870 H   0  0  0  0  0
    2.6050    1.9490   -1.9270 H   0  0  0  0  0
   -4.4118    0.9486    1.2203 O   0  0  0  0  0
   -5.5277   -0.5431   -0.2642 C   0  0  0  0  0
   -5.3331   -0.2938   -1.3158 H   0  0  0  0  0
   -6.4743   -0.0678    0.0220 H   0  0  0  0  0
   -5.6597   -1.6358   -0.2019 H   0  0  0  0  0
  1  2  2  0  0  0
  6  1  1  0  0  0
  1  7  1  0  0  0
  2  3  1  0  0  0
  2  8  1  0  0  0
  3  4  2  0  0  0
  3  9  1  0  0  0
  4  5  1  0  0  0
  4 10  1  0  0  0
  5  6  2  0  0  0
  5 11  1  0  0  0
  6 22  1  0  0  0
 13 11  1  0  0  0
 12 13  2  0  0  0
 12 14  1  0  0  0
 22 12  1  0  0  0
 13 15  1  0  0  0
 14 16  2  0  0  0
 14 18  1  0  0  0
 17 15  2  0  0  0
 15 19  1  0  0  0
 16 17  1  0  0  0
 16 20  1  0  0  0
 17 21  1  0  0  0
 20 41  2  0  0  0
 20 42  1  0  0  0
 22 23  1  0  0  0
 23 24  1  0  0  0
 23 25  1  0  0  0
 23 26  1  0  0  0
 24 27  1  0  0  0
 24 28  1  0  0  0
 24 29  1  0  0  0
 27 30  1  0  0  0
 27 31  1  0  0  0
 27 32  1  0  0  0
 32 33  1  0  0  0
 32 34  1  0  0  0
 33 35  1  0  0  0
 33 36  1  0  0  0
 33 37  1  0  0  0
 34 38  1  0  0  0
 34 39  1  0  0  0
 34 40  1  0  0  0
 42 43  1  0  0  0
 42 44  1  0  0  0
 42 45  1  0  0  0
M  END
