(S)-1-Phenylpropan-2-amine
 OpenBabel01030815093D

 23 23  0  0  0  0  0  0  0  0999 V2000
    1.8954    2.0963   -0.6531 C   0  0  0  0  0
    1.6305    0.7650   -0.3550 C   0  0  0  0  0
    0.5431    0.4296    0.4545 C   0  0  0  0  0
   -0.2746    1.4412    0.9599 C   0  0  0  0  0
   -0.0052    2.7724    0.6610 C   0  0  0  0  0
    1.0787    3.1015   -0.1453 C   0  0  0  0  0
    0.2672   -1.0041    0.7770 C   0  0  0  0  0
   -0.4088   -1.7198   -0.4030 C   0  0  0  0  0
   -1.8622   -1.2780   -0.5426 C   0  0  0  0  0
   -0.2626   -3.1892   -0.2363 N   0  0  0  0  0
    2.7491    2.3534   -1.2884 H   0  0  0  0  0
    2.2736   -0.0278   -0.7544 H   0  0  0  0  0
   -1.1315    1.1853    1.5936 H   0  0  0  0  0
   -0.6490    3.5618    1.0621 H   0  0  0  0  0
    1.2897    4.1498   -0.3797 H   0  0  0  0  0
   -0.3656   -1.0801    1.6850 H   0  0  0  0  0
    1.2236   -1.5048    1.0323 H   0  0  0  0  0
    0.1455   -1.4617   -1.3402 H   0  0  0  0  0
   -2.4712   -1.5782    0.3217 H   0  0  0  0  0
   -2.3330   -1.6992   -1.4408 H   0  0  0  0  0
   -0.7035   -3.6521   -1.0033 H   0  0  0  0  0
   -0.7020   -3.4777    0.6135 H   0  0  0  0  0
   -1.9274   -0.1836   -0.6186 H   0  0  0  0  0
  1  2  1  0  0  0
  6  1  2  0  0  0
  1 11  1  0  0  0
  2  3  2  0  0  0
  2 12  1  0  0  0
  3  4  1  0  0  0
  3  7  1  0  0  0
  4  5  2  0  0  0
  4 13  1  0  0  0
  5  6  1  0  0  0
  5 14  1  0  0  0
  6 15  1  0  0  0
  7  8  1  0  0  0
  7 16  1  0  0  0
  7 17  1  0  0  0
  8  9  1  0  0  0
  8 10  1  0  0  0
  8 18  1  0  0  0
  9 19  1  0  0  0
  9 20  1  0  0  0
  9 23  1  0  0  0
 10 21  1  0  0  0
 10 22  1  0  0  0
M  END
