1-Chloro-4-methoxybenzene
 OpenBabel01030815083D

 16 16  0  0  0  0  0  0  0  0999 V2000
    1.9848    0.9002    0.3227 C   0  0  0  0  0
    2.2540   -0.4577    0.1521 C   0  0  0  0  0
    1.2277   -1.3669   -0.0790 C   0  0  0  0  0
   -0.0890   -0.9240   -0.1424 C   0  0  0  0  0
   -0.3620    0.4374    0.0286 C   0  0  0  0  0
    0.6770    1.3550    0.2621 C   0  0  0  0  0
    3.8485   -1.0033    0.2278 Cl  0  0  0  0  0
   -1.6162    1.0121   -0.0091 O   0  0  0  0  0
    2.8081    1.5998    0.5038 H   0  0  0  0  0
    1.4591   -2.4296   -0.2105 H   0  0  0  0  0
   -0.8898   -1.6492   -0.3251 H   0  0  0  0  0
    0.4563    2.4205    0.3952 H   0  0  0  0  0
   -2.7135    0.1636   -0.2396 C   0  0  0  0  0
   -3.5547    0.8617   -0.2183 H   0  0  0  0  0
   -2.8305   -0.5896    0.5483 H   0  0  0  0  0
   -2.6599   -0.3302   -1.2168 H   0  0  0  0  0
  1  2  1  0  0  0
  6  1  2  0  0  0
  1  9  1  0  0  0
  2  3  2  0  0  0
  2  7  1  0  0  0
  3  4  1  0  0  0
  3 10  1  0  0  0
  4  5  2  0  0  0
  4 11  1  0  0  0
  5  6  1  0  0  0
  5  8  1  0  0  0
  6 12  1  0  0  0
  8 13  1  0  0  0
 13 14  1  0  0  0
 13 15  1  0  0  0
 13 16  1  0  0  0
M  END
