1-Chloro-3-methoxybenzene
 OpenBabel01030815083D

 16 16  0  0  0  0  0  0  0  0999 V2000
    0.9082   -0.0535    0.0635 C   0  0  0  0  0
    1.1702   -1.3719   -0.3026 C   0  0  0  0  0
    0.1486   -2.2478   -0.6506 C   0  0  0  0  0
   -1.1693   -1.7972   -0.6330 C   0  0  0  0  0
   -1.4651   -0.4907   -0.2730 C   0  0  0  0  0
   -0.4197    0.3821    0.0762 C   0  0  0  0  0
    2.7683   -1.9115   -0.3218 Cl  0  0  0  0  0
    1.7411    0.6069    0.3313 H   0  0  0  0  0
    0.3827   -3.2791   -0.9343 H   0  0  0  0  0
   -1.9794   -2.4817   -0.9059 H   0  0  0  0  0
   -0.8387    1.6521    0.4152 O   0  0  0  0  0
   -2.5041   -0.1414   -0.2607 H   0  0  0  0  0
    0.1487    2.5863    0.7764 C   0  0  0  0  0
    0.8498    2.7877   -0.0418 H   0  0  0  0  0
    0.7035    2.2806    1.6710 H   0  0  0  0  0
   -0.4448    3.4794    0.9901 H   0  0  0  0  0
  1  2  1  0  0  0
  6  1  2  0  0  0
  1  8  1  0  0  0
  2  3  2  0  0  0
  2  7  1  0  0  0
  3  4  1  0  0  0
  3  9  1  0  0  0
  4  5  2  0  0  0
  4 10  1  0  0  0
  5  6  1  0  0  0
  5 12  1  0  0  0
  6 11  1  0  0  0
 11 13  1  0  0  0
 13 14  1  0  0  0
 13 15  1  0  0  0
 13 16  1  0  0  0
M  END
