1,4-Xylene
 OpenBabel01030815083D

 18 18  0  0  0  0  0  0  0  0999 V2000
    1.3109    0.4641    0.0001 C   0  0  0  0  0
    1.0583   -0.9008    0.0489 C   0  0  0  0  0
   -0.2544   -1.3749    0.0501 C   0  0  0  0  0
   -1.3108   -0.4642    0.0001 C   0  0  0  0  0
   -1.0582    0.9008   -0.0487 C   0  0  0  0  0
    0.2545    1.3750   -0.0500 C   0  0  0  0  0
    0.5250    2.8339   -0.1183 C   0  0  0  0  0
   -0.5249   -2.8338    0.1182 C   0  0  0  0  0
   -2.3443   -0.8282   -0.0011 H   0  0  0  0  0
   -1.8932    1.6093   -0.0860 H   0  0  0  0  0
    0.6072    3.1594   -1.1645 H   0  0  0  0  0
    1.4643    3.0989    0.3849 H   0  0  0  0  0
   -0.2782    3.4199    0.3478 H   0  0  0  0  0
    1.8931   -1.6096    0.0861 H   0  0  0  0  0
    2.3444    0.8284    0.0014 H   0  0  0  0  0
    0.2774   -3.4200   -0.3491 H   0  0  0  0  0
   -1.4648   -3.0983   -0.3841 H   0  0  0  0  0
   -0.6062   -3.1599    1.1642 H   0  0  0  0  0
  1  2  2  0  0  0
  6  1  1  0  0  0
  1 15  1  0  0  0
  2  3  1  0  0  0
  2 14  1  0  0  0
  3  4  2  0  0  0
  3  8  1  0  0  0
  4  5  1  0  0  0
  4  9  1  0  0  0
  5  6  2  0  0  0
  5 10  1  0  0  0
  6  7  1  0  0  0
  7 11  1  0  0  0
  7 12  1  0  0  0
  7 13  1  0  0  0
  8 16  1  0  0  0
  8 17  1  0  0  0
  8 18  1  0  0  0
M  END
