1H-1_2-benzodiazepine.gpr
 OpenBabel01030815083D

 19 20  0  0  0  0  0  0  0  0999 V2000
    1.8708    0.0023   -0.0256 C   0  0  0  0  0
    2.2472   -1.3209   -0.2096 C   0  0  0  0  0
    1.2875   -2.3268   -0.1726 C   0  0  0  0  0
   -0.0469   -2.0080    0.0389 C   0  0  0  0  0
   -0.4343   -0.6742    0.2231 C   0  0  0  0  0
    0.5315    0.3471    0.1934 C   0  0  0  0  0
    0.2270    1.7614    0.3919 C   0  0  0  0  0
   -0.9196    2.3774    0.0824 C   0  0  0  0  0
   -2.0942    1.7385   -0.4955 C   0  0  0  0  0
   -2.4860    0.5166   -0.3252 N   0  0  0  0  0
   -1.8232   -0.3817    0.5360 N   0  0  0  0  0
    2.6338    0.7896   -0.0506 H   0  0  0  0  0
    3.2989   -1.5721   -0.3807 H   0  0  0  0  0
    1.5831   -3.3722   -0.3105 H   0  0  0  0  0
   -0.7910   -2.8144    0.0648 H   0  0  0  0  0
    1.0515    2.3555    0.8107 H   0  0  0  0  0
   -1.0203    3.4573    0.2502 H   0  0  0  0  0
   -2.7425    2.3394   -1.1478 H   0  0  0  0  0
   -2.3733   -1.2147    0.5266 H   0  0  0  0  0
  1  2  1  0  0  0
  6  1  2  0  0  0
  1 12  1  0  0  0
  2  3  2  0  0  0
  2 13  1  0  0  0
  3  4  1  0  0  0
  3 14  1  0  0  0
  4  5  2  0  0  0
  4 15  1  0  0  0
  5  6  1  0  0  0
 11  5  1  0  0  0
  6  7  1  0  0  0
  7  8  2  0  0  0
  7 16  1  0  0  0
  8  9  1  0  0  0
  8 17  1  0  0  0
  9 10  2  0  0  0
  9 18  1  0  0  0
 10 11  1  0  0  0
 11 19  1  0  0  0
M  END
