(1S,2R)-1,2-Diphenylethane-1,2-diol
 OpenBabel01030815083D

 30 31  0  0  0  0  0  0  0  0999 V2000
    1.8187    2.9624    1.0897 C   0  0  0  0  0
    2.6104    2.7638   -0.0372 C   0  0  0  0  0
    2.1100    2.0432   -1.1148 C   0  0  0  0  0
    0.8219    1.5174   -1.0713 C   0  0  0  0  0
    0.0236    1.7173    0.0543 C   0  0  0  0  0
    0.5306    2.4449    1.1354 C   0  0  0  0  0
   -1.3846    1.1808    0.1536 C   0  0  0  0  0
   -1.3988   -0.1355    0.9989 C   0  0  0  0  0
   -0.7795   -1.3235    0.3018 C   0  0  0  0  0
   -1.5062   -2.0977   -0.6038 C   0  0  0  0  0
    0.5462   -1.6604    0.5824 C   0  0  0  0  0
    1.1357   -2.7566   -0.0362 C   0  0  0  0  0
   -0.9137   -3.1948   -1.2195 C   0  0  0  0  0
    0.4067   -3.5261   -0.9368 C   0  0  0  0  0
   -1.9169    1.0299   -1.1449 O   0  0  0  0  0
   -2.7563   -0.3548    1.3469 O   0  0  0  0  0
    2.2089    3.5310    1.9399 H   0  0  0  0  0
    3.6236    3.1765   -0.0748 H   0  0  0  0  0
    2.7295    1.8873   -2.0040 H   0  0  0  0  0
    0.4394    0.9481   -1.9266 H   0  0  0  0  0
   -0.0926    2.6105    2.0220 H   0  0  0  0  0
   -2.0134    1.9440    0.6825 H   0  0  0  0  0
   -0.8378    0.0701    1.9460 H   0  0  0  0  0
   -2.5461   -1.8400   -0.8385 H   0  0  0  0  0
    1.1275   -1.0533    1.2869 H   0  0  0  0  0
    2.1766   -3.0132    0.1865 H   0  0  0  0  0
   -1.4891   -3.7961   -1.9309 H   0  0  0  0  0
    0.8720   -4.3897   -1.4230 H   0  0  0  0  0
   -2.7314    0.5542   -1.0456 H   0  0  0  0  0
   -2.8151   -1.2400    1.6811 H   0  0  0  0  0
  1  2  2  0  0  0
  1  6  1  0  0  0
  1 17  1  0  0  0
  2  3  1  0  0  0
  2 18  1  0  0  0
  3  4  2  0  0  0
  3 19  1  0  0  0
  4  5  1  0  0  0
  4 20  1  0  0  0
  5  6  2  0  0  0
  5  7  1  0  0  0
  6 21  1  0  0  0
  7  8  1  0  0  0
  7 15  1  0  0  0
  7 22  1  0  0  0
  8  9  1  0  0  0
  8 16  1  0  0  0
  8 23  1  0  0  0
  9 10  2  0  0  0
  9 11  1  0  0  0
 10 13  1  0  0  0
 10 24  1  0  0  0
 11 12  2  0  0  0
 11 25  1  0  0  0
 14 12  1  0  0  0
 12 26  1  0  0  0
 13 14  2  0  0  0
 13 27  1  0  0  0
 14 28  1  0  0  0
 15 29  1  0  0  0
 16 30  1  0  0  0
M  END
