2-Bromophenol
 OpenBabel01030815083D

 13 13  0  0  0  0  0  0  0  0999 V2000
   -0.2427    1.6660    0.0636 C   0  0  0  0  0
    1.0584    1.1647    0.0493 C   0  0  0  0  0
    1.2291   -0.2012   -0.0030 C   0  0  0  0  0
    0.1583   -1.0898   -0.0415 C   0  0  0  0  0
   -1.1482   -0.5833   -0.0272 C   0  0  0  0  0
   -1.3296    0.7957    0.0256 C   0  0  0  0  0
   -0.4092    2.7470    0.1051 H   0  0  0  0  0
    1.9299    1.8262    0.0781 H   0  0  0  0  0
    2.9319   -0.9490   -0.0252 Br  0  0  0  0  0
    0.4933   -2.4095   -0.0910 O   0  0  0  0  0
   -2.0137   -1.2541   -0.0567 H   0  0  0  0  0
   -2.3469    1.2013    0.0372 H   0  0  0  0  0
   -0.3105   -2.9140   -0.1145 H   0  0  0  0  0
  1  2  2  0  0  0
  6  1  1  0  0  0
  1  7  1  0  0  0
  2  3  1  0  0  0
  2  8  1  0  0  0
  3  4  2  0  0  0
  3  9  1  0  0  0
  4  5  1  0  0  0
  4 10  1  0  0  0
  5  6  2  0  0  0
  5 11  1  0  0  0
  6 12  1  0  0  0
 10 13  1  0  0  0
M  END
