2-Chloro-5-methylphenol
 OpenBabel01030815083D

 16 16  0  0  0  0  0  0  0  0999 V2000
    0.7800    0.4120    0.1085 C   0  0  0  0  0
    1.0594   -0.9505   -0.0447 C   0  0  0  0  0
    0.0285   -1.8664   -0.2355 C   0  0  0  0  0
   -1.3029   -1.4423   -0.2773 C   0  0  0  0  0
   -1.5871   -0.0710   -0.1232 C   0  0  0  0  0
   -0.5462    0.8488    0.0688 C   0  0  0  0  0
   -2.9030    0.3274   -0.1672 O   0  0  0  0  0
    1.8710    1.3931    0.3118 C   0  0  0  0  0
    0.2621   -2.9362   -0.3547 H   0  0  0  0  0
   -2.5295   -2.5914   -0.5118 Cl  0  0  0  0  0
   -0.7768    1.9173    0.1883 H   0  0  0  0  0
   -2.9256    1.2884   -0.0461 H   0  0  0  0  0
    2.8702    0.8929    0.3217 H   0  0  0  0  0
    1.7341    1.9280    1.2849 H   0  0  0  0  0
    1.8649    2.1536   -0.5089 H   0  0  0  0  0
    2.1009   -1.3035   -0.0146 H   0  0  0  0  0
  1  2  1  0  0  0
  6  1  2  0  0  0
  1  8  1  0  0  0
  2  3  2  0  0  0
  2 16  1  0  0  0
  3  4  1  0  0  0
  3  9  1  0  0  0
  4  5  2  0  0  0
  4 10  1  0  0  0
  5  6  1  0  0  0
  5  7  1  0  0  0
  6 11  1  0  0  0
  7 12  1  0  0  0
  8 13  1  0  0  0
  8 14  1  0  0  0
  8 15  1  0  0  0
M  END
