2,4-Dimethylphenol
 OpenBabel01030815083D

 19 19  0  0  0  0  0  0  0  0999 V2000
    0.4287    0.8762   -0.0617 C   0  0  0  0  0
   -0.9397    0.6204   -0.0069 C   0  0  0  0  0
   -1.3680   -0.7183    0.0744 C   0  0  0  0  0
   -0.4408   -1.7680    0.0977 C   0  0  0  0  0
    0.9169   -1.4841    0.0413 C   0  0  0  0  0
    1.3593   -0.1639   -0.0370 C   0  0  0  0  0
   -2.7193   -0.9363    0.1272 O   0  0  0  0  0
   -1.9143    1.7405   -0.0350 C   0  0  0  0  0
    2.8136    0.1372   -0.0812 C   0  0  0  0  0
    0.7812    1.9134   -0.1264 H   0  0  0  0  0
   -0.7762   -2.8098    0.1592 H   0  0  0  0  0
    1.6439   -2.3038    0.0577 H   0  0  0  0  0
   -2.8575   -1.8739    0.1766 H   0  0  0  0  0
   -2.5960    1.6466   -0.8914 H   0  0  0  0  0
   -1.4182    2.7173   -0.1105 H   0  0  0  0  0
   -2.5290    1.7490    0.8754 H   0  0  0  0  0
    3.0240    1.0459   -0.6607 H   0  0  0  0  0
    3.3871   -0.6834   -0.5321 H   0  0  0  0  0
    3.2042    0.2948    0.9336 H   0  0  0  0  0
  1  2  2  0  0  0
  6  1  1  0  0  0
  1 10  1  0  0  0
  2  3  1  0  0  0
  2  8  1  0  0  0
  3  4  2  0  0  0
  3  7  1  0  0  0
  4  5  1  0  0  0
  4 11  1  0  0  0
  5  6  2  0  0  0
  5 12  1  0  0  0
  6  9  1  0  0  0
  7 13  1  0  0  0
  8 14  1  0  0  0
  8 15  1  0  0  0
  8 16  1  0  0  0
  9 17  1  0  0  0
  9 18  1  0  0  0
  9 19  1  0  0  0
M  END
