2,4,6-trimethylaniline
 OpenBabel01030815083D

 23 23  0  0  0  0  0  0  0  0999 V2000
    0.3928    1.0562    0.0954 C   0  0  0  0  0
    1.2889   -0.0265   -0.0107 C   0  0  0  0  0
    0.7908   -1.3241   -0.1073 C   0  0  0  0  0
   -0.5806   -1.5680   -0.0984 C   0  0  0  0  0
   -1.4640   -0.4963    0.0081 C   0  0  0  0  0
   -0.9953    0.8122    0.1066 C   0  0  0  0  0
    0.8906    2.3849    0.2898 N   0  0  0  0  0
   -1.9875    1.9158    0.2214 C   0  0  0  0  0
    2.7642    0.1714   -0.0228 C   0  0  0  0  0
   -1.0961   -2.9586   -0.1874 C   0  0  0  0  0
    1.4877   -2.1677   -0.1911 H   0  0  0  0  0
   -2.5446   -0.6872    0.0153 H   0  0  0  0  0
    0.2508    3.0693   -0.0514 H   0  0  0  0  0
    1.7867    2.5056   -0.1303 H   0  0  0  0  0
   -3.0194    1.5378    0.2288 H   0  0  0  0  0
   -1.9098    2.6179   -0.6215 H   0  0  0  0  0
   -1.8473    2.4880    1.1492 H   0  0  0  0  0
    3.1112    0.6680    0.8941 H   0  0  0  0  0
    3.0823    0.7849   -0.8784 H   0  0  0  0  0
    3.3032   -0.7835   -0.0959 H   0  0  0  0  0
   -1.2125   -3.3897    0.8164 H   0  0  0  0  0
   -0.4155   -3.6112   -0.7501 H   0  0  0  0  0
   -2.0767   -2.9992   -0.6798 H   0  0  0  0  0
  1  2  2  0  0  0
  6  1  1  0  0  0
  1  7  1  0  0  0
  2  9  1  0  0  0
  2  3  1  0  0  0
  3  4  2  0  0  0
  3 11  1  0  0  0
  4  5  1  0  0  0
  4 10  1  0  0  0
  5  6  2  0  0  0
  5 12  1  0  0  0
  6  8  1  0  0  0
  7 13  1  0  0  0
  7 14  1  0  0  0
  8 15  1  0  0  0
  8 16  1  0  0  0
  8 17  1  0  0  0
  9 18  1  0  0  0
  9 19  1  0  0  0
  9 20  1  0  0  0
 10 21  1  0  0  0
 10 22  1  0  0  0
 10 23  1  0  0  0
M  END
