3-Chlorophenol
 OpenBabel01030815083D

 13 13  0  0  0  0  0  0  0  0999 V2000
   -0.2385    1.6111    0.0614 C   0  0  0  0  0
    1.0576    1.0982    0.0466 C   0  0  0  0  0
    1.2970   -0.2699   -0.0054 C   0  0  0  0  0
    0.1950   -1.1354   -0.0432 C   0  0  0  0  0
   -1.1154   -0.6371   -0.0290 C   0  0  0  0  0
   -1.3186    0.7371    0.0234 C   0  0  0  0  0
    0.4839   -2.4708   -0.0937 O   0  0  0  0  0
   -1.9752   -1.3162   -0.0587 H   0  0  0  0  0
   -2.3394    1.1336    0.0348 H   0  0  0  0  0
   -0.3369   -2.9470   -0.1153 H   0  0  0  0  0
    2.3221   -0.6585   -0.0164 H   0  0  0  0  0
    2.3652    2.1611    0.0929 Cl  0  0  0  0  0
   -0.3968    2.6939    0.1028 H   0  0  0  0  0
  1  2  2  0  0  0
  6  1  1  0  0  0
  1 13  1  0  0  0
  2  3  1  0  0  0
  2 12  1  0  0  0
  3  4  2  0  0  0
  3 11  1  0  0  0
  4  5  1  0  0  0
  4  7  1  0  0  0
  5  6  2  0  0  0
  5  8  1  0  0  0
  6  9  1  0  0  0
  7 10  1  0  0  0
M  END
