4-Bromophenol
 OpenBabel01030815083D

 13 13  0  0  0  0  0  0  0  0999 V2000
   -0.1805    1.5355    0.0587 C   0  0  0  0  0
    1.1235    1.0768    0.0461 C   0  0  0  0  0
    1.3417   -0.2945   -0.0062 C   0  0  0  0  0
    0.2340   -1.1579   -0.0439 C   0  0  0  0  0
   -1.0803   -0.6655   -0.0300 C   0  0  0  0  0
   -1.2856    0.7096    0.0224 C   0  0  0  0  0
   -0.4629    3.3798    0.1292 Br  0  0  0  0  0
    0.5229   -2.4932   -0.0945 O   0  0  0  0  0
   -1.9388   -1.3459   -0.0597 H   0  0  0  0  0
   -2.2936    1.1362    0.0350 H   0  0  0  0  0
   -0.2971   -2.9707   -0.1161 H   0  0  0  0  0
    2.3606   -0.6975   -0.0178 H   0  0  0  0  0
    1.9560    1.7871    0.0768 H   0  0  0  0  0
  1  2  2  0  0  0
  6  1  1  0  0  0
  1  7  1  0  0  0
  2  3  1  0  0  0
  2 13  1  0  0  0
  3  4  2  0  0  0
  3 12  1  0  0  0
  4  5  1  0  0  0
  4  8  1  0  0  0
  5  6  2  0  0  0
  5  9  1  0  0  0
  6 10  1  0  0  0
  8 11  1  0  0  0
M  END
