4-Chloro-3-methylphenol
 OpenBabel01030815083D

 16 16  0  0  0  0  0  0  0  0999 V2000
    0.7117    0.4158    0.0958 C   0  0  0  0  0
    0.9877   -0.9284   -0.1707 C   0  0  0  0  0
   -0.0382   -1.8500   -0.3739 C   0  0  0  0  0
   -1.3619   -1.4417   -0.3138 C   0  0  0  0  0
   -1.6444   -0.0937   -0.0465 C   0  0  0  0  0
   -0.6166    0.8354    0.1583 C   0  0  0  0  0
    2.5869   -1.4625   -0.2516 Cl  0  0  0  0  0
   -2.9692    0.2430   -0.0009 O   0  0  0  0  0
    1.8184    1.3817    0.3090 C   0  0  0  0  0
    0.2086   -2.8973   -0.5809 H   0  0  0  0  0
   -2.1747   -2.1591   -0.4722 H   0  0  0  0  0
   -0.8443    1.8883    0.3671 H   0  0  0  0  0
   -3.0292    1.1714    0.1866 H   0  0  0  0  0
    2.4422    1.0736    1.1596 H   0  0  0  0  0
    1.4544    2.3974    0.5098 H   0  0  0  0  0
    2.4685    1.4260   -0.5758 H   0  0  0  0  0
  1  2  1  0  0  0
  6  1  2  0  0  0
  1  9  1  0  0  0
  2  3  2  0  0  0
  2  7  1  0  0  0
  3  4  1  0  0  0
  3 10  1  0  0  0
  4  5  2  0  0  0
  4 11  1  0  0  0
  5  6  1  0  0  0
  5  8  1  0  0  0
  6 12  1  0  0  0
  8 13  1  0  0  0
  9 14  1  0  0  0
  9 15  1  0  0  0
  9 16  1  0  0  0
M  END
