4-Dimethylaminobenzaldehyde
 OpenBabel01030815083D

 22 22  0  0  0  0  0  0  0  0999 V2000
   -0.3521    0.7170    0.6755 C   0  0  0  0  0
   -1.7261    0.5252    0.7520 C   0  0  0  0  0
   -2.3379   -0.4789    0.0003 C   0  0  0  0  0
   -1.5627   -1.2914   -0.8304 C   0  0  0  0  0
   -0.1885   -1.1059   -0.9127 C   0  0  0  0  0
    0.4196   -0.0984   -0.1575 C   0  0  0  0  0
    1.8729    0.0502   -0.2853 N   0  0  0  0  0
    2.2574    1.3488   -0.8825 C   0  0  0  0  0
    2.5841   -0.2438    0.9789 C   0  0  0  0  0
   -3.8027   -0.7089    0.0597 C   0  0  0  0  0
   -4.5595   -0.0570    0.7435 O   0  0  0  0  0
    0.1190    1.5091    1.2708 H   0  0  0  0  0
   -2.3344    1.1638    1.4045 H   0  0  0  0  0
   -2.0407   -2.0814   -1.4222 H   0  0  0  0  0
    0.4139   -1.7472   -1.5672 H   0  0  0  0  0
    2.0251    2.2145   -0.2430 H   0  0  0  0  0
    1.7343    1.4750   -1.8384 H   0  0  0  0  0
    3.3375    1.3423   -1.0765 H   0  0  0  0  0
    3.6641   -0.2473    0.7841 H   0  0  0  0  0
    2.2925   -1.2403    1.3331 H   0  0  0  0  0
    2.3786    0.4830    1.7801 H   0  0  0  0  0
   -4.1942   -1.5285   -0.5669 H   0  0  0  0  0
  1  2  2  0  0  0
  6  1  1  0  0  0
  1 12  1  0  0  0
  2  3  1  0  0  0
  2 13  1  0  0  0
  3  4  2  0  0  0
  3 10  1  0  0  0
  4  5  1  0  0  0
  4 14  1  0  0  0
  5  6  2  0  0  0
  5 15  1  0  0  0
  6  7  1  0  0  0
  7  8  1  0  0  0
  7  9  1  0  0  0
  8 16  1  0  0  0
  8 17  1  0  0  0
  8 18  1  0  0  0
  9 19  1  0  0  0
  9 20  1  0  0  0
  9 21  1  0  0  0
 10 11  2  0  0  0
 10 22  1  0  0  0
M  END
