Anisole
 OpenBabel01030815083D

 16 16  0  0  0  0  0  0  0  0999 V2000
    0.7657    1.3376   -0.0352 C   0  0  0  0  0
    2.0607    0.8409   -0.0245 C   0  0  0  0  0
    2.2904   -0.5328    0.0066 C   0  0  0  0  0
    1.2184   -1.4154    0.0268 C   0  0  0  0  0
   -0.0898   -0.9415    0.0167 C   0  0  0  0  0
   -0.3131    0.4384   -0.0140 C   0  0  0  0  0
    0.5861    2.4184   -0.0599 H   0  0  0  0  0
    2.9076    1.5348   -0.0404 H   0  0  0  0  0
    3.3159   -0.9153    0.0152 H   0  0  0  0  0
    1.3997   -2.4950    0.0510 H   0  0  0  0  0
   -0.9211   -1.6549    0.0328 H   0  0  0  0  0
   -1.5519    1.0491   -0.0279 O   0  0  0  0  0
   -2.6849    0.2177    0.0072 C   0  0  0  0  0
   -2.7483   -0.4374   -0.8694 H   0  0  0  0  0
   -3.5047    0.9410   -0.0060 H   0  0  0  0  0
   -2.7307   -0.3856    0.9213 H   0  0  0  0  0
  1  2  2  0  0  0
  6  1  1  0  0  0
  1  7  1  0  0  0
  2  3  1  0  0  0
  2  8  1  0  0  0
  3  4  2  0  0  0
  3  9  1  0  0  0
  4  5  1  0  0  0
  4 10  1  0  0  0
  5  6  2  0  0  0
  5 11  1  0  0  0
  6 12  1  0  0  0
 12 13  1  0  0  0
 13 14  1  0  0  0
 13 15  1  0  0  0
 13 16  1  0  0  0
M  END
