Benzene-1,2-diamine
 OpenBabel01030815083D

 16 16  0  0  0  0  0  0  0  0999 V2000
    1.2651    0.8542    0.3507 C   0  0  0  0  0
   -0.1142    0.8545    0.1056 C   0  0  0  0  0
   -0.7660   -0.3655   -0.1814 C   0  0  0  0  0
   -0.0154   -1.5466   -0.2431 C   0  0  0  0  0
    1.3522   -1.5255   -0.0076 C   0  0  0  0  0
    1.9902   -0.3279    0.2960 C   0  0  0  0  0
   -0.8648    2.0698    0.2489 N   0  0  0  0  0
   -2.1635   -0.3897   -0.5098 N   0  0  0  0  0
    1.7862    1.7902    0.5872 H   0  0  0  0  0
   -0.5027   -2.5014   -0.4766 H   0  0  0  0  0
    1.9278   -2.4552   -0.0581 H   0  0  0  0  0
    3.0676   -0.3155    0.4897 H   0  0  0  0  0
   -1.5083    2.1859   -0.5037 H   0  0  0  0  0
   -0.2561    2.8574    0.3057 H   0  0  0  0  0
   -2.6956    0.1421    0.1443 H   0  0  0  0  0
   -2.5024   -1.3266   -0.5477 H   0  0  0  0  0
  1  2  2  0  0  0
  6  1  1  0  0  0
  1  9  1  0  0  0
  2  3  1  0  0  0
  2  7  1  0  0  0
  3  4  2  0  0  0
  3  8  1  0  0  0
  4  5  1  0  0  0
  4 10  1  0  0  0
  5  6  2  0  0  0
  5 11  1  0  0  0
  6 12  1  0  0  0
  7 13  1  0  0  0
  7 14  1  0  0  0
  8 15  1  0  0  0
  8 16  1  0  0  0
M  END
