Benzene-1,2-diol
 OpenBabel01030815083D

 14 14  0  0  0  0  0  0  0  0999 V2000
    1.1953    1.2190   -0.1042 C   0  0  0  0  0
    1.7084   -0.0613    0.0543 C   0  0  0  0  0
    0.8549   -1.1556    0.1540 C   0  0  0  0  0
   -0.5295   -0.9681    0.0946 C   0  0  0  0  0
   -1.0528    0.3372   -0.0671 C   0  0  0  0  0
   -0.1795    1.4249   -0.1655 C   0  0  0  0  0
   -1.4234   -2.0001    0.1861 O   0  0  0  0  0
    1.8735    2.0747   -0.1819 H   0  0  0  0  0
    2.7911   -0.2150    0.1017 H   0  0  0  0  0
    1.2740   -2.1609    0.2788 H   0  0  0  0  0
   -2.4137    0.4704   -0.1196 O   0  0  0  0  0
   -0.9233   -2.8003    0.2897 H   0  0  0  0  0
   -0.5707    2.4413   -0.2911 H   0  0  0  0  0
   -2.6042    1.3938   -0.2299 H   0  0  0  0  0
  1  2  2  0  0  0
  6  1  1  0  0  0
  1  8  1  0  0  0
  2  3  1  0  0  0
  2  9  1  0  0  0
  3  4  2  0  0  0
  3 10  1  0  0  0
  4  5  1  0  0  0
  4  7  1  0  0  0
  5  6  2  0  0  0
  5 11  1  0  0  0
  6 13  1  0  0  0
  7 12  1  0  0  0
 11 14  1  0  0  0
M  END
