Benzene-1,3-diamine
 OpenBabel01030815083D

 16 16  0  0  0  0  0  0  0  0999 V2000
    0.8868    0.8268    0.2708 C   0  0  0  0  0
   -0.5116    0.8155    0.2061 C   0  0  0  0  0
   -1.1792   -0.3846   -0.0646 C   0  0  0  0  0
   -0.4511   -1.5626   -0.2851 C   0  0  0  0  0
    0.9355   -1.5336   -0.2228 C   0  0  0  0  0
    1.6125   -0.3525    0.0500 C   0  0  0  0  0
   -2.6073   -0.4281   -0.0230 N   0  0  0  0  0
    1.5705    2.0219    0.6551 N   0  0  0  0  0
   -0.9646   -2.5066   -0.5006 H   0  0  0  0  0
    1.5030   -2.4550   -0.3912 H   0  0  0  0  0
    2.7075   -0.3533    0.0958 H   0  0  0  0  0
   -2.9698   -1.1606   -0.5918 H   0  0  0  0  0
   -3.0110    0.4489   -0.2669 H   0  0  0  0  0
   -1.0810    1.7385    0.3786 H   0  0  0  0  0
    1.0618    2.8378    0.3962 H   0  0  0  0  0
    2.4979    2.0475    0.2934 H   0  0  0  0  0
  1  2  2  0  0  0
  6  1  1  0  0  0
  1  8  1  0  0  0
  2  3  1  0  0  0
  2 14  1  0  0  0
  3  4  2  0  0  0
  3  7  1  0  0  0
  4  5  1  0  0  0
  4  9  1  0  0  0
  5  6  2  0  0  0
  5 10  1  0  0  0
  6 11  1  0  0  0
  7 12  1  0  0  0
  7 13  1  0  0  0
  8 15  1  0  0  0
  8 16  1  0  0  0
M  END
