Chlorobenzene
 OpenBabel01030815083D

 12 12  0  0  0  0  0  0  0  0999 V2000
   -0.1693    1.3630    0.0000 C   0  0  0  0  0
    1.1269    0.8599    0.0000 C   0  0  0  0  0
    1.3431   -0.5148    0.0000 C   0  0  0  0  0
    0.2634   -1.3928    0.0000 C   0  0  0  0  0
   -1.0370   -0.9006    0.0000 C   0  0  0  0  0
   -1.2436    0.4767    0.0000 C   0  0  0  0  0
   -0.3510    2.4431    0.0000 H   0  0  0  0  0
    1.9782    1.5486    0.0000 H   0  0  0  0  0
    2.3655   -0.9068    0.0000 H   0  0  0  0  0
    0.4362   -2.4740    0.0000 H   0  0  0  0  0
   -1.8940   -1.5825    0.0000 H   0  0  0  0  0
   -2.8183    1.0802    0.0000 Cl  0  0  0  0  0
  1  2  2  0  0  0
  6  1  1  0  0  0
  1  7  1  0  0  0
  2  3  1  0  0  0
  2  8  1  0  0  0
  3  4  2  0  0  0
  3  9  1  0  0  0
  4  5  1  0  0  0
  4 10  1  0  0  0
  5  6  2  0  0  0
  5 11  1  0  0  0
  6 12  1  0  0  0
M  END
