[(E)-2-Phenylethenyl]benzene
 OpenBabel01030815083D

 26 27  0  0  0  0  0  0  0  0999 V2000
    0.1196   -0.6595   -0.0025 C   0  0  0  0  0
   -0.1186    0.6614   -0.0002 C   0  0  0  0  0
   -1.4612    1.2268   -0.0023 C   0  0  0  0  0
    1.4617   -1.2258    0.0010 C   0  0  0  0  0
   -1.6281    2.6157    0.0313 C   0  0  0  0  0
   -2.9044    3.1645    0.0296 C   0  0  0  0  0
   -4.0231    2.3378   -0.0066 C   0  0  0  0  0
   -3.8644    0.9562   -0.0402 C   0  0  0  0  0
   -2.5910    0.4026   -0.0374 C   0  0  0  0  0
    1.6271   -2.6149    0.0289 C   0  0  0  0  0
    2.5924   -0.4024   -0.0231 C   0  0  0  0  0
    3.8653   -0.9571   -0.0208 C   0  0  0  0  0
    4.0225   -2.3392    0.0072 C   0  0  0  0  0
    2.9029   -3.1650    0.0325 C   0  0  0  0  0
   -0.7277   -1.3663   -0.0075 H   0  0  0  0  0
    0.7286    1.3684    0.0033 H   0  0  0  0  0
   -0.7502    3.2711    0.0596 H   0  0  0  0  0
   -3.0299    4.2518    0.0569 H   0  0  0  0  0
   -5.0271    2.7743   -0.0085 H   0  0  0  0  0
   -4.7431    0.3038   -0.0688 H   0  0  0  0  0
   -2.4464   -0.6886   -0.0616 H   0  0  0  0  0
    0.7485   -3.2696    0.0486 H   0  0  0  0  0
    2.4487    0.6889   -0.0430 H   0  0  0  0  0
    4.7447   -0.3055   -0.0408 H   0  0  0  0  0
    5.0259   -2.7768    0.0093 H   0  0  0  0  0
    3.0271   -4.2527    0.0552 H   0  0  0  0  0
  1  2  2  0  0  0
  1  4  1  0  0  0
  1 15  1  0  0  0
  2  3  1  0  0  0
  2 16  1  0  0  0
  9  3  2  0  0  0
  3  5  1  0  0  0
  4 10  1  0  0  0
 11  4  2  0  0  0
  5  6  2  0  0  0
  5 17  1  0  0  0
  6  7  1  0  0  0
  6 18  1  0  0  0
  7  8  2  0  0  0
  7 19  1  0  0  0
  8  9  1  0  0  0
  8 20  1  0  0  0
  9 21  1  0  0  0
 14 10  2  0  0  0
 10 22  1  0  0  0
 11 12  1  0  0  0
 11 23  1  0  0  0
 12 13  2  0  0  0
 12 24  1  0  0  0
 13 14  1  0  0  0
 13 25  1  0  0  0
 14 26  1  0  0  0
M  END
