Nitrobenzene
 OpenBabel01030815083D

 14 14  0  0  0  0  0  0  0  0999 V2000
    0.8535    1.7126    0.0000 C   0  0  0  0  0
    1.6260    0.5506   -0.0000 C   0  0  0  0  0
    1.0160   -0.7019   -0.0000 C   0  0  0  0  0
   -0.3866   -0.7760    0.0000 C   0  0  0  0  0
   -1.1720    0.3885   -0.0000 C   0  0  0  0  0
   -0.5393    1.6298   -0.0000 C   0  0  0  0  0
   -1.0498   -2.1063    0.0000 N   0  0  0  0  0
   -0.3686   -3.0968   -0.0000 O   0  0  0  0  0
   -2.2508   -2.1584   -0.0000 O   0  0  0  0  0
    1.3446    2.6980    0.0000 H   0  0  0  0  0
    2.7248    0.6180   -0.0000 H   0  0  0  0  0
    1.6226   -1.6236   -0.0000 H   0  0  0  0  0
   -2.2731    0.3182   -0.0000 H   0  0  0  0  0
   -1.1474    2.5474   -0.0000 H   0  0  0  0  0
  1  2  2  0  0  0
  6  1  1  0  0  0
  1 10  1  0  0  0
  2  3  1  0  0  0
  2 11  1  0  0  0
  3  4  2  0  0  0
  3 12  1  0  0  0
  4  5  1  0  0  0
  4  7  1  0  0  0
  5  6  2  0  0  0
  5 13  1  0  0  0
  6 14  1  0  0  0
  7  8  2  0  0  0
  7  9  1  0  0  0
M  END
