Phenol
 OpenBabel01030815083D

 13 13  0  0  0  0  0  0  0  0999 V2000
    1.5178    0.1668    2.0795 H   0  0  0  0  0
    0.9614    0.0926    1.1394 C   0  0  0  0  0
    1.6460    0.0099   -0.0679 C   0  0  0  0  0
    2.7404    0.0191   -0.0773 H   0  0  0  0  0
    0.9420   -0.0847   -1.2655 C   0  0  0  0  0
    1.4860   -0.1495   -2.2137 H   0  0  0  0  0
   -0.4462   -0.0975   -1.2688 C   0  0  0  0  0
   -1.0021   -0.1718   -2.2100 H   0  0  0  0  0
   -1.1283   -0.0136   -0.0467 C   0  0  0  0  0
   -0.4282    0.0818    1.1631 C   0  0  0  0  0
   -0.9608    0.1475    2.1186 H   0  0  0  0  0
   -2.4949   -0.0313   -0.1176 O   0  0  0  0  0
   -2.8331    0.0309    0.7670 H   0  0  0  0  0
  1  2  1  0  0  0
  2  3  2  0  0  0
  2 10  1  0  0  0
  3  4  1  0  0  0
  3  5  1  0  0  0
  5  6  1  0  0  0
  5  7  2  0  0  0
  7  8  1  0  0  0
  7  9  1  0  0  0
  9 10  2  0  0  0
  9 12  1  0  0  0
 10 11  1  0  0  0
 12 13  1  0  0  0
M  END
