Toluene
 OpenBabel01030815083D

 15 15  0  0  0  0  0  0  0  0999 V2000
    1.1901   -0.1807    0.0692 C   0  0  0  0  0
    0.9669   -1.5526    0.0622 C   0  0  0  0  0
   -0.3307   -2.0489   -0.0038 C   0  0  0  0  0
   -1.4066   -1.1694   -0.0623 C   0  0  0  0  0
   -1.1873    0.2032   -0.0556 C   0  0  0  0  0
    0.1135    0.7058    0.0088 C   0  0  0  0  0
    0.3509    2.1723    0.0000 C   0  0  0  0  0
    2.2133    0.2077    0.1233 H   0  0  0  0  0
    1.8148   -2.2435    0.1093 H   0  0  0  0  0
   -0.5050   -3.1295   -0.0087 H   0  0  0  0  0
   -2.4288   -1.5580   -0.1134 H   0  0  0  0  0
   -2.0368    0.8938   -0.0999 H   0  0  0  0  0
    0.4662    2.5348   -1.0307 H   0  0  0  0  0
    1.2632    2.4414    0.5488 H   0  0  0  0  0
   -0.4837    2.7237    0.4528 H   0  0  0  0  0
  1  2  2  0  0  0
  6  1  1  0  0  0
  1  8  1  0  0  0
  2  3  1  0  0  0
  2  9  1  0  0  0
  3  4  2  0  0  0
  3 10  1  0  0  0
  4  5  1  0  0  0
  4 11  1  0  0  0
  5  6  2  0  0  0
  5 12  1  0  0  0
  6  7  1  0  0  0
  7 13  1  0  0  0
  7 14  1  0  0  0
  7 15  1  0  0  0
M  END
