Tris(4-dimethylaminophenyl)methanol
 OpenBabel01030815083D

 60 62  0  0  0  0  0  0  0  0999 V2000
   -0.0666    3.2741   -0.8556 C   0  0  0  0  0
    0.2936    2.0239   -0.3744 C   0  0  0  0  0
   -0.3033    1.4972    0.7722 C   0  0  0  0  0
   -1.2781    2.2535    1.4274 C   0  0  0  0  0
   -1.6416    3.5061    0.9544 C   0  0  0  0  0
   -1.0424    4.0362   -0.1974 C   0  0  0  0  0
   -0.9404   -0.9301    0.8509 C   0  0  0  0  0
   -1.6713   -0.7741   -0.3270 C   0  0  0  0  0
   -2.5864   -1.7363   -0.7295 C   0  0  0  0  0
   -1.1422   -2.0822    1.6140 C   0  0  0  0  0
   -2.0551   -3.0490    1.2227 C   0  0  0  0  0
   -2.7965   -2.8883    0.0422 C   0  0  0  0  0
    2.6090    0.1894    1.4976 C   0  0  0  0  0
    1.4812   -0.2811    0.8212 C   0  0  0  0  0
    1.6644   -1.0930   -0.2989 C   0  0  0  0  0
    2.9366   -1.4462   -0.7238 C   0  0  0  0  0
    4.0696   -0.9902   -0.0344 C   0  0  0  0  0
    3.8852   -0.1604    1.0814 C   0  0  0  0  0
    0.0824    0.1182    1.2960 C   0  0  0  0  0
    0.0842    0.2336    2.7190 O   0  0  0  0  0
    1.0635    1.4454   -0.9019 H   0  0  0  0  0
   -1.7658    1.8621    2.3281 H   0  0  0  0  0
   -2.4030    4.0876    1.4962 H   0  0  0  0  0
   -1.5209    0.1237   -0.9415 H   0  0  0  0  0
   -3.1454   -1.5908   -1.6664 H   0  0  0  0  0
   -0.5679   -2.2243    2.5413 H   0  0  0  0  0
    2.4908    0.8508    2.3650 H   0  0  0  0  0
    0.7904   -1.4599   -0.8535 H   0  0  0  0  0
    3.0513   -2.0849   -1.6127 H   0  0  0  0  0
    4.7574    0.2281    1.6291 H   0  0  0  0  0
    0.2084   -0.6480    3.0551 H   0  0  0  0  0
   -1.3404    5.3842   -0.6294 N   0  0  0  0  0
   -3.6673   -3.9423   -0.4274 N   0  0  0  0  0
    5.3969   -1.2703   -0.5342 N   0  0  0  0  0
    0.4289    3.6695   -1.7552 H   0  0  0  0  0
   -2.1905   -3.9494    1.8408 H   0  0  0  0  0
   -2.6524    5.9310   -0.2144 C   0  0  0  0  0
   -1.0408    5.7018   -2.0442 C   0  0  0  0  0
   -4.7171   -3.5468   -1.3941 C   0  0  0  0  0
   -4.1951   -4.8663    0.6025 C   0  0  0  0  0
    5.5380   -2.4745   -1.3844 C   0  0  0  0  0
    6.5043   -1.1592    0.4425 C   0  0  0  0  0
   -3.4905    5.5594   -0.8234 H   0  0  0  0  0
   -2.6192    7.0245   -0.3039 H   0  0  0  0  0
   -2.8564    5.6771    0.8381 H   0  0  0  0  0
   -0.0655    5.2784   -2.3327 H   0  0  0  0  0
   -0.9877    6.7928   -2.1534 H   0  0  0  0  0
   -1.7986    5.3205   -2.7453 H   0  0  0  0  0
   -5.0684   -4.4470   -1.9147 H   0  0  0  0  0
   -4.3051   -2.8532   -2.1443 H   0  0  0  0  0
   -5.5833   -3.0609   -0.9199 H   0  0  0  0  0
   -3.3997   -5.1425    1.3131 H   0  0  0  0  0
   -4.5437   -5.7807    0.1053 H   0  0  0  0  0
   -5.0335   -4.4434    1.1766 H   0  0  0  0  0
    4.7013   -2.5387   -2.0982 H   0  0  0  0  0
    5.5674   -3.4119   -0.8084 H   0  0  0  0  0
    6.4714   -2.3910   -1.9559 H   0  0  0  0  0
    7.4475   -1.0577   -0.1097 H   0  0  0  0  0
    6.5851   -2.0319    1.1082 H   0  0  0  0  0
    6.3733   -0.2626    1.0692 H   0  0  0  0  0
  1  2  1  0  0  0
  6  1  2  0  0  0
  1 35  1  0  0  0
  2  3  2  0  0  0
  2 21  1  0  0  0
  3  4  1  0  0  0
  3 19  1  0  0  0
  4  5  2  0  0  0
  4 22  1  0  0  0
  5  6  1  0  0  0
  5 23  1  0  0  0
  6 32  1  0  0  0
  7  8  2  0  0  0
  7 10  1  0  0  0
 19  7  1  0  0  0
  8  9  1  0  0  0
  8 24  1  0  0  0
 12  9  2  0  0  0
  9 25  1  0  0  0
 10 11  2  0  0  0
 10 26  1  0  0  0
 11 12  1  0  0  0
 11 36  1  0  0  0
 12 33  1  0  0  0
 13 14  2  0  0  0
 18 13  1  0  0  0
 13 27  1  0  0  0
 14 15  1  0  0  0
 19 14  1  0  0  0
 15 16  2  0  0  0
 15 28  1  0  0  0
 16 17  1  0  0  0
 16 29  1  0  0  0
 17 18  2  0  0  0
 17 34  1  0  0  0
 18 30  1  0  0  0
 19 20  1  0  0  0
 20 31  1  0  0  0
 32 37  1  0  0  0
 32 38  1  0  0  0
 33 39  1  0  0  0
 33 40  1  0  0  0
 34 41  1  0  0  0
 34 42  1  0  0  0
 37 43  1  0  0  0
 37 44  1  0  0  0
 37 45  1  0  0  0
 38 46  1  0  0  0
 38 47  1  0  0  0
 38 48  1  0  0  0
 39 49  1  0  0  0
 39 50  1  0  0  0
 39 51  1  0  0  0
 40 52  1  0  0  0
 40 53  1  0  0  0
 40 54  1  0  0  0
 41 55  1  0  0  0
 41 56  1  0  0  0
 41 57  1  0  0  0
 42 58  1  0  0  0
 42 59  1  0  0  0
 42 60  1  0  0  0
M  END
