Tris(4-cyanophenyl)methane
 OpenBabel01030815083D

 38 40  0  0  0  0  0  0  0  0999 V2000
   -0.3358    3.1118   -1.3934 C   0  0  0  0  0
    0.0417    1.8618   -0.9176 C   0  0  0  0  0
   -0.3735    1.4255    0.3416 C   0  0  0  0  0
   -1.1773    2.2589    1.1253 C   0  0  0  0  0
   -1.5642    3.5088    0.6592 C   0  0  0  0  0
   -1.1417    3.9346   -0.6031 C   0  0  0  0  0
   -1.0049   -0.9836    0.5387 C   0  0  0  0  0
   -1.6857   -0.9783   -0.6801 C   0  0  0  0  0
   -2.6209   -1.9638   -0.9723 C   0  0  0  0  0
   -1.2697   -1.9942    1.4677 C   0  0  0  0  0
   -2.2001   -2.9863    1.1858 C   0  0  0  0  0
   -2.8767   -2.9691   -0.0369 C   0  0  0  0  0
    2.4875    0.0282    1.2687 C   0  0  0  0  0
    1.4054   -0.3292    0.4589 C   0  0  0  0  0
    1.6375   -1.0445   -0.7173 C   0  0  0  0  0
    2.9289   -1.4032   -1.0844 C   0  0  0  0  0
    4.0025   -1.0402   -0.2678 C   0  0  0  0  0
    3.7832   -0.3224    0.9111 C   0  0  0  0  0
    0.0151    0.0728    0.8857 C   0  0  0  0  0
   -0.0015    3.4463   -2.3820 H   0  0  0  0  0
    0.6797    1.2138   -1.5336 H   0  0  0  0  0
   -1.5106    1.9264    2.1158 H   0  0  0  0  0
   -2.1964    4.1547    1.2789 H   0  0  0  0  0
   -1.4863   -0.1816   -1.4096 H   0  0  0  0  0
   -3.1528   -1.9484   -1.9303 H   0  0  0  0  0
   -0.7399   -2.0095    2.4278 H   0  0  0  0  0
   -2.4010   -3.7755    1.9191 H   0  0  0  0  0
    2.3178    0.5915    2.1943 H   0  0  0  0  0
    0.7895   -1.3348   -1.3522 H   0  0  0  0  0
    3.0998   -1.9680   -2.0078 H   0  0  0  0  0
    4.6258   -0.0378    1.5515 H   0  0  0  0  0
   -1.5355    5.2152   -1.0870 C   0  0  0  0  0
   -3.8339   -3.9824   -0.3302 C   0  0  0  0  0
    5.3285   -1.4056   -0.6384 C   0  0  0  0  0
   -1.8571    6.2571   -1.4816 N   0  0  0  0  0
   -4.6133   -4.8072   -0.5688 N   0  0  0  0  0
    6.4076   -1.7038   -0.9406 N   0  0  0  0  0
    0.0284    0.1617    2.0051 H   0  0  0  0  0
  1  2  1  0  0  0
  6  1  2  0  0  0
  1 20  1  0  0  0
  2  3  2  0  0  0
  2 21  1  0  0  0
  3  4  1  0  0  0
  3 19  1  0  0  0
  4  5  2  0  0  0
  4 22  1  0  0  0
  5  6  1  0  0  0
  5 23  1  0  0  0
  6 32  1  0  0  0
  7  8  2  0  0  0
  7 10  1  0  0  0
 19  7  1  0  0  0
  8  9  1  0  0  0
  8 24  1  0  0  0
 12  9  2  0  0  0
  9 25  1  0  0  0
 10 11  2  0  0  0
 10 26  1  0  0  0
 11 12  1  0  0  0
 11 27  1  0  0  0
 12 33  1  0  0  0
 13 14  2  0  0  0
 18 13  1  0  0  0
 13 28  1  0  0  0
 14 15  1  0  0  0
 19 14  1  0  0  0
 15 16  2  0  0  0
 15 29  1  0  0  0
 16 17  1  0  0  0
 16 30  1  0  0  0
 17 18  2  0  0  0
 17 34  1  0  0  0
 18 31  1  0  0  0
 19 38  1  0  0  0
 32 35  3  0  0  0
 33 36  3  0  0  0
 34 37  3  0  0  0
M  END
