(2S,3S)-2,3-Dihydroxybutanedioic acid
 OpenBabel01030815093D

 16 15  0  0  0  0  0  0  0  0999 V2000
   -1.4706   -0.5956    0.1879 H   0  0  0  0  0
   -0.4199   -0.5020    0.5626 C   0  0  0  0  0
   -0.3654   -0.6953    1.9610 O   0  0  0  0  0
   -0.9098   -1.4466    2.1549 H   0  0  0  0  0
    0.1071    0.9416    0.2991 C   0  0  0  0  0
    1.1840    1.0142    0.5949 H   0  0  0  0  0
   -0.6623    1.8958    0.9978 O   0  0  0  0  0
   -0.4843    1.7699    1.9207 H   0  0  0  0  0
   -0.0548    1.3169   -1.1802 C   0  0  0  0  0
   -0.8731    0.9114   -1.9838 O   0  0  0  0  0
    0.8403    2.2229   -1.6239 O   0  0  0  0  0
    0.6807    2.4224   -2.5413 H   0  0  0  0  0
    0.4490   -1.5622   -0.1259 C   0  0  0  0  0
    1.4976   -1.4403   -0.7268 O   0  0  0  0  0
   -0.0460   -2.8176   -0.0271 O   0  0  0  0  0
    0.5276   -3.4355   -0.4699 H   0  0  0  0  0
  1  2  1  0  0  0
  2  3  1  0  0  0
  2  5  1  0  0  0
  2 13  1  0  0  0
  3  4  1  0  0  0
  5  6  1  0  0  0
  5  7  1  0  0  0
  5  9  1  0  0  0
  7  8  1  0  0  0
  9 10  2  0  0  0
  9 11  1  0  0  0
 11 12  1  0  0  0
 13 14  2  0  0  0
 13 15  1  0  0  0
 15 16  1  0  0  0
M  END
