(2R)-2-[(1S)-1,2-Dihydroxyethyl]-4,5-dihydroxyfuran-3-one
 OpenBabel01030815093D

 20 20  0  0  0  0  0  0  0  0999 V2000
    0.3617   -1.6397   -0.4459 H   0  0  0  0  0
    0.0000   -0.6100   -0.2244 C   0  0  0  0  0
    0.2543   -0.4299    1.1961 O   0  0  0  0  0
   -0.9564   -0.1912    1.7938 C   0  0  0  0  0
   -0.7257   -0.0249    3.0972 O   0  0  0  0  0
   -1.5595    0.1729    3.5101 H   0  0  0  0  0
   -2.0389   -0.2377    0.9591 C   0  0  0  0  0
   -1.5362   -0.5062   -0.4016 C   0  0  0  0  0
   -2.1540   -0.6239   -1.4354 O   0  0  0  0  0
   -3.3370   -0.1174    1.3735 O   0  0  0  0  0
   -3.7926    0.2920    0.6479 H   0  0  0  0  0
    0.7753    0.4152   -1.0760 C   0  0  0  0  0
    0.5022    0.2243   -2.1452 H   0  0  0  0  0
    0.3414    1.7060   -0.7009 O   0  0  0  0  0
    0.7458    2.3108   -1.3083 H   0  0  0  0  0
    2.3110    0.2804   -0.8923 C   0  0  0  0  0
    2.8382    1.1440   -1.3375 H   0  0  0  0  0
    2.5895    0.2345    0.1780 H   0  0  0  0  0
    2.8392   -0.8017   -1.6057 O   0  0  0  0  0
    2.5415   -1.5976   -1.1824 H   0  0  0  0  0
  1  2  1  0  0  0
  2  3  1  0  0  0
  2 12  1  0  0  0
  2  8  1  0  0  0
  3  4  1  0  0  0
  4  5  1  0  0  0
  4  7  2  0  0  0
  5  6  1  0  0  0
  7  8  1  0  0  0
  7 10  1  0  0  0
  8  9  2  0  0  0
 10 11  1  0  0  0
 12 13  1  0  0  0
 12 14  1  0  0  0
 12 16  1  0  0  0
 14 15  1  0  0  0
 16 17  1  0  0  0
 16 18  1  0  0  0
 16 19  1  0  0  0
 19 20  1  0  0  0
M  END
