Oxalic acid
 OpenBabel01030815093D

  8  7  0  0  0  0  0  0  0  0999 V2000
    1.6000    0.7900    0.1125 O   0  0  0  0  0
    0.7377   -0.0100   -0.1828 C   0  0  0  0  0
    1.1026   -1.0691   -0.9343 O   0  0  0  0  0
    2.0335   -1.0284   -1.1325 H   0  0  0  0  0
   -0.7375    0.0101    0.1829 C   0  0  0  0  0
   -1.5999   -0.7898   -0.1128 O   0  0  0  0  0
   -1.1027    1.0688    0.9349 O   0  0  0  0  0
   -2.0338    1.0283    1.1320 H   0  0  0  0  0
  1  2  2  0  0  0
  2  3  1  0  0  0
  2  5  1  0  0  0
  3  4  1  0  0  0
  5  6  2  0  0  0
  5  7  1  0  0  0
  7  8  1  0  0  0
M  END
