1-Bromopropane
 OpenBabel01030815093D

 11 10  0  0  0  0  0  0  0  0999 V2000
    1.2126   -0.0327    0.0160 C   0  0  0  0  0
    2.3027   -1.3375   -0.9508 Br  0  0  0  0  0
    1.4550   -0.1222    1.0859 H   0  0  0  0  0
   -0.1987   -0.4081   -0.3223 C   0  0  0  0  0
    1.5046    0.9698   -0.3321 H   0  0  0  0  0
   -0.3335   -0.3819   -1.4219 H   0  0  0  0  0
   -1.1914    0.5111    0.3540 C   0  0  0  0  0
   -0.3812   -1.4602   -0.0265 H   0  0  0  0  0
   -2.2224    0.2295    0.1053 H   0  0  0  0  0
   -1.0520    1.5555    0.0450 H   0  0  0  0  0
   -1.0956    0.4767    1.4474 H   0  0  0  0  0
  1  2  1  0  0  0
  1  3  1  0  0  0
  1  4  1  0  0  0
  1  5  1  0  0  0
  4  6  1  0  0  0
  4  7  1  0  0  0
  4  8  1  0  0  0
  7  9  1  0  0  0
  7 10  1  0  0  0
  7 11  1  0  0  0
M  END
