1,1,2,2-Tetrachloroethane
 OpenBabel01030815093D

  8  7  0  0  0  0  0  0  0  0999 V2000
    0.6882    0.0765   -0.2994 C   0  0  0  0  0
   -0.6882   -0.0764    0.2993 C   0  0  0  0  0
    1.3790    1.6188    0.2047 Cl  0  0  0  0  0
    1.7392   -1.2002    0.3133 Cl  0  0  0  0  0
   -1.7395    1.2000   -0.3135 Cl  0  0  0  0  0
   -1.3788   -1.6188   -0.2046 Cl  0  0  0  0  0
    0.6559    0.0295   -1.4116 H   0  0  0  0  0
   -0.6558   -0.0293    1.4115 H   0  0  0  0  0
  1  2  1  0  0  0
  1  3  1  0  0  0
  1  4  1  0  0  0
  1  7  1  0  0  0
  2  5  1  0  0  0
  2  6  1  0  0  0
  2  8  1  0  0  0
M  END
