1,1,1-Trichloroethane
 OpenBabel01030815093D

  8  7  0  0  0  0  0  0  0  0999 V2000
   -0.5563    0.2834    0.2229 C   0  0  0  0  0
    0.7034   -0.3583   -0.2818 C   0  0  0  0  0
   -1.9551   -0.7309   -0.1106 Cl  0  0  0  0  0
   -0.4761    0.5438    1.9614 Cl  0  0  0  0  0
   -0.8197    1.8428   -0.5485 Cl  0  0  0  0  0
    0.8693   -1.3324    0.1967 H   0  0  0  0  0
    1.5780    0.2719   -0.0735 H   0  0  0  0  0
    0.6566   -0.5202   -1.3666 H   0  0  0  0  0
  1  2  1  0  0  0
  1  3  1  0  0  0
  1  4  1  0  0  0
  1  5  1  0  0  0
  2  6  1  0  0  0
  2  7  1  0  0  0
  2  8  1  0  0  0
M  END
