1,1,1,2,2-Pentafluoroethane
 OpenBabel01030815093D

  8  7  0  0  0  0  0  0  0  0999 V2000
    0.7689   -0.0245   -0.0186 C   0  0  0  0  0
   -0.8348   -0.0328    0.0379 C   0  0  0  0  0
    1.2526   -0.9505   -0.9004 F   0  0  0  0  0
    1.3237   -0.3370    1.1912 F   0  0  0  0  0
    1.3097    1.1720   -0.3880 F   0  0  0  0  0
   -1.1562   -1.0683    0.3524 H   0  0  0  0  0
   -1.3665    0.3167   -1.1727 F   0  0  0  0  0
   -1.2974    0.9245    0.8981 F   0  0  0  0  0
  1  2  1  0  0  0
  1  3  1  0  0  0
  1  4  1  0  0  0
  1  5  1  0  0  0
  2  6  1  0  0  0
  2  7  1  0  0  0
  2  8  1  0  0  0
M  END
