1,1,1,2,2,2-Hexafluoroethane
 OpenBabel01030815093D

  8  7  0  0  0  0  0  0  0  0999 V2000
    0.6482    1.2130   -1.1578 F   0  0  0  0  0
    0.6985    0.1227   -0.3784 C   0  0  0  0  0
    1.7034    0.2969    0.4926 F   0  0  0  0  0
    1.0205   -0.9173   -1.1615 F   0  0  0  0  0
   -0.6985   -0.1227    0.3784 C   0  0  0  0  0
   -1.0206    0.9172    1.1617 F   0  0  0  0  0
   -1.7033   -0.2967   -0.4926 F   0  0  0  0  0
   -0.6482   -1.2131    1.1576 F   0  0  0  0  0
  1  2  1  0  0  0
  2  3  1  0  0  0
  2  4  1  0  0  0
  2  5  1  0  0  0
  5  6  1  0  0  0
  5  7  1  0  0  0
  5  8  1  0  0  0
M  END
