1,4-Dichlorobut-2-yne
 OpenBabel01030815093D

 10  9  0  0  0  0  0  0  0  0999 V2000
    0.5929    0.0109   -0.0636 C   0  0  0  0  0
   -0.5929   -0.0104    0.0642 C   0  0  0  0  0
    2.0148    0.0362   -0.2169 C   0  0  0  0  0
   -2.0148   -0.0362    0.2170 C   0  0  0  0  0
    2.7782    0.0593    1.3981 Cl  0  0  0  0  0
   -2.7774   -0.0581   -1.3985 Cl  0  0  0  0  0
    2.3352    0.9342   -0.7749 H   0  0  0  0  0
    2.3679   -0.8560   -0.7645 H   0  0  0  0  0
   -2.3688    0.8552    0.7654 H   0  0  0  0  0
   -2.3351   -0.9351    0.7736 H   0  0  0  0  0
  1  2  3  0  0  0
  1  3  1  0  0  0
  2  4  1  0  0  0
  3  5  1  0  0  0
  3  7  1  0  0  0
  3  8  1  0  0  0
  4  6  1  0  0  0
  4  9  1  0  0  0
  4 10  1  0  0  0
M  END
