2-Chloro-2-methylpropane
 OpenBabel01030815093D

 14 13  0  0  0  0  0  0  0  0999 V2000
    0.9910   -0.9974   -0.3688 C   0  0  0  0  0
   -0.0835    0.0683   -0.3060 C   0  0  0  0  0
   -1.3322   -0.4299    0.3917 C   0  0  0  0  0
    0.4316    1.3534    0.3086 C   0  0  0  0  0
   -0.5483    0.4487   -2.0099 Cl  0  0  0  0  0
    1.3243   -1.2797    0.6385 H   0  0  0  0  0
    1.8694   -0.6455   -0.9254 H   0  0  0  0  0
    0.6241   -1.9047   -0.8660 H   0  0  0  0  0
   -1.1230   -0.6820    1.4395 H   0  0  0  0  0
   -1.7291   -1.3298   -0.0959 H   0  0  0  0  0
   -2.1245    0.3300    0.3823 H   0  0  0  0  0
    1.3027    1.7361   -0.2392 H   0  0  0  0  0
    0.7353    1.1961    1.3519 H   0  0  0  0  0
   -0.3378    2.1364    0.2986 H   0  0  0  0  0
  1  2  1  0  0  0
  1  6  1  0  0  0
  1  7  1  0  0  0
  1  8  1  0  0  0
  2  3  1  0  0  0
  2  4  1  0  0  0
  2  5  1  0  0  0
  3  9  1  0  0  0
  3 10  1  0  0  0
  3 11  1  0  0  0
  4 12  1  0  0  0
  4 13  1  0  0  0
  4 14  1  0  0  0
M  END
