(2S)-2-Bromobutane
 OpenBabel01030815093D

 14 13  0  0  0  0  0  0  0  0999 V2000
    1.8778    0.3861    0.0612 C   0  0  0  0  0
    0.6128   -0.4341    0.0132 C   0  0  0  0  0
   -0.6055    0.4567   -0.1278 C   0  0  0  0  0
   -1.8968   -0.2666    0.1546 C   0  0  0  0  0
    2.7774   -0.2685    0.1603 H   0  0  0  0  0
    1.8456    1.0722    0.9442 H   0  0  0  0  0
    1.9883    1.0071   -0.8607 H   0  0  0  0  0
    0.5237   -1.0524    0.9426 H   0  0  0  0  0
    0.7164   -1.7632   -1.4160 Br  0  0  0  0  0
   -0.6358    0.9057   -1.1557 H   0  0  0  0  0
   -0.4967    1.3088    0.5983 H   0  0  0  0  0
   -2.0693   -1.0853   -0.5851 H   0  0  0  0  0
   -2.7535    0.4478    0.0931 H   0  0  0  0  0
   -1.8845   -0.7143    1.1779 H   0  0  0  0  0
  1  2  1  0  0  0
  1  5  1  0  0  0
  1  6  1  0  0  0
  1  7  1  0  0  0
  2  3  1  0  0  0
  2  8  1  0  0  0
  2  9  1  0  0  0
  3  4  1  0  0  0
  3 10  1  0  0  0
  3 11  1  0  0  0
  4 12  1  0  0  0
  4 13  1  0  0  0
  4 14  1  0  0  0
M  END
