Bromotrifluoromethane
 OpenBabel01030815093D

  5  4  0  0  0  0  0  0  0  0999 V2000
   -0.0633    0.0727    0.0463 C   0  0  0  0  0
    1.0976   -1.2599   -0.8019 Br  0  0  0  0  0
   -1.0320   -0.5195    0.7493 F   0  0  0  0  0
   -0.6370    0.8556   -0.8709 F   0  0  0  0  0
    0.6347    0.8511    0.8772 F   0  0  0  0  0
  1  2  1  0  0  0
  1  3  1  0  0  0
  1  4  1  0  0  0
  1  5  1  0  0  0
M  END
