Bromoethane
 OpenBabel01030815093D

  8  7  0  0  0  0  0  0  0  0999 V2000
    0.6412    0.2479    0.2500 C   0  0  0  0  0
    1.7114   -1.0696   -0.7279 Br  0  0  0  0  0
    0.8661    0.1244    1.3199 H   0  0  0  0  0
   -0.7662   -0.0718   -0.1178 C   0  0  0  0  0
    0.9751    1.2458   -0.0716 H   0  0  0  0  0
   -0.9236    0.0125   -1.2012 H   0  0  0  0  0
   -1.4734    0.6079    0.3761 H   0  0  0  0  0
   -1.0306   -1.0971    0.1724 H   0  0  0  0  0
  1  2  1  0  0  0
  1  3  1  0  0  0
  1  4  1  0  0  0
  1  5  1  0  0  0
  4  6  1  0  0  0
  4  7  1  0  0  0
  4  8  1  0  0  0
M  END
