Chloro-(chloromethoxy)methane
 OpenBabel01030815093D

  9  8  0  0  0  0  0  0  0  0999 V2000
    0.7905    0.6084    0.6411 C   0  0  0  0  0
   -0.3184    0.7553   -0.1952 O   0  0  0  0  0
   -0.8646   -0.4326   -0.6866 C   0  0  0  0  0
    2.2345    0.0919   -0.3074 Cl  0  0  0  0  0
   -1.7120   -1.3305    0.6276 Cl  0  0  0  0  0
    0.6215   -0.1213    1.4515 H   0  0  0  0  0
   -1.5951   -0.0932   -1.4341 H   0  0  0  0  0
    0.9514    1.6198    1.0398 H   0  0  0  0  0
   -0.1078   -1.0977   -1.1367 H   0  0  0  0  0
  1  2  1  0  0  0
  1  4  1  0  0  0
  1  6  1  0  0  0
  1  8  1  0  0  0
  2  3  1  0  0  0
  3  5  1  0  0  0
  3  7  1  0  0  0
  3  9  1  0  0  0
M  END
