Chloroform
 OpenBabel01030815093D

  5  4  0  0  0  0  0  0  0  0999 V2000
    0.0707   -0.0419    0.1182 C   0  0  0  0  0
   -0.0831    1.7037    0.0862 Cl  0  0  0  0  0
   -1.5350   -0.7437    0.0861 Cl  0  0  0  0  0
    0.6165   -0.3658    1.0306 H   0  0  0  0  0
    0.9309   -0.5522   -1.3211 Cl  0  0  0  0  0
  1  2  1  0  0  0
  1  3  1  0  0  0
  1  4  1  0  0  0
  1  5  1  0  0  0
M  END
