Chloroethane
 OpenBabel01030815093D

  8  7  0  0  0  0  0  0  0  0999 V2000
    0.6431    0.4428   -0.0366 C   0  0  0  0  0
   -0.4945   -0.5350    0.0461 C   0  0  0  0  0
   -2.0345    0.3573   -0.0461 Cl  0  0  0  0  0
    0.6219    1.0083   -0.9773 H   0  0  0  0  0
    0.6099    1.1715    0.7839 H   0  0  0  0  0
   -0.4839   -1.1042    0.9919 H   0  0  0  0  0
   -0.4723   -1.2673   -0.7797 H   0  0  0  0  0
    1.6103   -0.0734    0.0178 H   0  0  0  0  0
  1  2  1  0  0  0
  1  4  1  0  0  0
  1  5  1  0  0  0
  1  8  1  0  0  0
  2  3  1  0  0  0
  2  6  1  0  0  0
  2  7  1  0  0  0
M  END
