Ethane-1,2-dithiol
 OpenBabel01030815093D

 10  9  0  0  0  0  0  0  0  0999 V2000
    1.2612   -1.0190    1.5345 S   0  0  0  0  0
    0.6690    0.1792    0.3040 C   0  0  0  0  0
   -0.6688   -0.1794   -0.3044 C   0  0  0  0  0
   -1.2611    1.0197   -1.5341 S   0  0  0  0  0
    1.4662   -2.0574    0.7664 H   0  0  0  0  0
    1.4215    0.3360   -0.4916 H   0  0  0  0  0
    0.6029    1.1392    0.8539 H   0  0  0  0  0
   -1.4215   -0.3367    0.4909 H   0  0  0  0  0
   -0.6026   -1.1390   -0.8548 H   0  0  0  0  0
   -1.4668    2.0573   -0.7649 H   0  0  0  0  0
  1  2  1  0  0  0
  1  5  1  0  0  0
  2  3  1  0  0  0
  2  6  1  0  0  0
  2  7  1  0  0  0
  3  4  1  0  0  0
  3  8  1  0  0  0
  3  9  1  0  0  0
  4 10  1  0  0  0
M  END
