Methanethiol
 OpenBabel01030815093D

  6  5  0  0  0  0  0  0  0  0999 V2000
    0.2886    0.3845    0.0433 C   0  0  0  0  0
   -1.0736   -0.5727   -0.6429 S   0  0  0  0  0
    0.3090    1.3468   -0.4837 H   0  0  0  0  0
    0.1747    0.5949    1.1121 H   0  0  0  0  0
   -0.9641   -1.6631    0.0683 H   0  0  0  0  0
    1.2654   -0.0904   -0.0970 H   0  0  0  0  0
  1  2  1  0  0  0
  1  3  1  0  0  0
  1  4  1  0  0  0
  1  6  1  0  0  0
  2  5  1  0  0  0
M  END
