Proprane-2-thiol
 OpenBabel01030815093D

 12 11  0  0  0  0  0  0  0  0999 V2000
    1.3038    0.1013    0.1768 C   0  0  0  0  0
   -0.0122   -0.2179   -0.5041 C   0  0  0  0  0
   -0.5503    1.1061   -1.6546 S   0  0  0  0  0
    2.0878    0.3465   -0.5517 H   0  0  0  0  0
    1.2112    0.9533    0.8645 H   0  0  0  0  0
   -1.0725   -0.5649    0.5220 C   0  0  0  0  0
    0.1318   -1.0873   -1.1904 H   0  0  0  0  0
   -0.7062    2.0992   -0.8175 H   0  0  0  0  0
    1.6576   -0.7554    0.7667 H   0  0  0  0  0
   -2.0318   -0.8089    0.0470 H   0  0  0  0  0
   -1.2498    0.2636    1.2217 H   0  0  0  0  0
   -0.7693   -1.4356    1.1196 H   0  0  0  0  0
  1  2  1  0  0  0
  1  4  1  0  0  0
  1  5  1  0  0  0
  1  9  1  0  0  0
  2  3  1  0  0  0
  2  6  1  0  0  0
  2  7  1  0  0  0
  3  8  1  0  0  0
  6 10  1  0  0  0
  6 11  1  0  0  0
  6 12  1  0  0  0
M  END
