Proprane-1-thiol
 OpenBabel01030815093D

 12 11  0  0  0  0  0  0  0  0999 V2000
    0.9435   -0.7429    1.0079 C   0  0  0  0  0
    0.4601    0.3137    0.0393 C   0  0  0  0  0
   -0.8354   -0.1079   -0.6282 C   0  0  0  0  0
   -1.4607    1.0548   -1.8769 S   0  0  0  0  0
    1.2364    0.5094   -0.7273 H   0  0  0  0  0
    0.3161    1.2755    0.5716 H   0  0  0  0  0
   -1.6076   -0.3063    0.1378 H   0  0  0  0  0
   -0.6947   -1.0619   -1.1731 H   0  0  0  0  0
   -1.5796    2.1343   -1.1484 H   0  0  0  0  0
    1.1350   -1.6989    0.5025 H   0  0  0  0  0
    0.2086   -0.9344    1.8013 H   0  0  0  0  0
    1.8784   -0.4355    1.4936 H   0  0  0  0  0
  1  2  1  0  0  0
  1 10  1  0  0  0
  1 11  1  0  0  0
  1 12  1  0  0  0
  2  3  1  0  0  0
  2  5  1  0  0  0
  2  6  1  0  0  0
  3  4  1  0  0  0
  3  7  1  0  0  0
  3  8  1  0  0  0
  4  9  1  0  0  0
M  END
