(2R)-2-Aminopropanoic acid
 OpenBabel01030815083D

 13 12  0  0  0  0  0  0  0  0999 V2000
    0.3883    1.4822   -0.2217 H   0  0  0  0  0
    0.3269    0.3981    0.0489 C   0  0  0  0  0
    1.7238   -0.0715    0.1945 N   0  0  0  0  0
    2.1940   -0.0137   -0.6834 H   0  0  0  0  0
    1.7409   -1.0147    0.5215 H   0  0  0  0  0
   -0.4262    0.2452    1.3657 C   0  0  0  0  0
   -1.4403    0.6585    1.2886 H   0  0  0  0  0
    0.0857    0.7793    2.1774 H   0  0  0  0  0
   -0.5197   -0.8060    1.6718 H   0  0  0  0  0
   -0.4362   -0.3365   -1.0497 C   0  0  0  0  0
   -0.2080   -1.4313   -1.5335 O   0  0  0  0  0
   -1.5025    0.3208   -1.5564 O   0  0  0  0  0
   -1.9267   -0.2103   -2.2236 H   0  0  0  0  0
  1  2  1  0  0  0
  2  3  1  0  0  0
  2  6  1  0  0  0
  2 10  1  0  0  0
  3  4  1  0  0  0
  3  5  1  0  0  0
  6  7  1  0  0  0
  6  8  1  0  0  0
  6  9  1  0  0  0
 10 11  2  0  0  0
 10 12  1  0  0  0
 12 13  1  0  0  0
M  END
