(2R)-2-Aminobutanedioic acid
 OpenBabel01030815083D

 16 15  0  0  0  0  0  0  0  0999 V2000
    1.1742    0.4056   -0.7750 H   0  0  0  0  0
    0.2895   -0.1723   -0.4019 C   0  0  0  0  0
   -0.6418   -0.3840   -1.5969 C   0  0  0  0  0
   -0.8076    0.3564   -2.5477 O   0  0  0  0  0
   -1.3684   -1.5241   -1.5968 O   0  0  0  0  0
   -1.9160   -1.5644   -2.3753 H   0  0  0  0  0
   -0.4689    0.6513    0.6464 C   0  0  0  0  0
    0.4139    1.0844    1.8008 C   0  0  0  0  0
   -0.9018    1.5561    0.1720 H   0  0  0  0  0
    0.8369   -1.4100    0.1935 N   0  0  0  0  0
    1.2658   -1.9668   -0.5135 H   0  0  0  0  0
    0.1211   -1.9322    0.6527 H   0  0  0  0  0
    1.4690    1.9121    1.6236 O   0  0  0  0  0
    0.2740    0.8026    2.9706 O   0  0  0  0  0
   -1.3315    0.0772    1.0444 H   0  0  0  0  0
    1.5918    2.1082    0.7031 H   0  0  0  0  0
  1  2  1  0  0  0
  2  3  1  0  0  0
  2  7  1  0  0  0
  2 10  1  0  0  0
  3  4  2  0  0  0
  3  5  1  0  0  0
  5  6  1  0  0  0
  7  9  1  0  0  0
  7  8  1  0  0  0
  7 15  1  0  0  0
  8 13  1  0  0  0
  8 14  2  0  0  0
 10 11  1  0  0  0
 10 12  1  0  0  0
 13 16  1  0  0  0
M  END
