(2S)-2-Amino-3-sulfanylpropanoic acid
 OpenBabel01030815083D

 14 13  0  0  0  0  0  0  0  0999 V2000
   -0.3326   -0.0188   -0.2303 C   0  0  0  0  0
    0.0292   -1.4488    0.1685 C   0  0  0  0  0
    0.8849   -2.1730   -0.3080 O   0  0  0  0  0
   -0.7067   -1.9743    1.1714 O   0  0  0  0  0
    0.2857    0.9498    0.7831 C   0  0  0  0  0
   -0.4377    2.6159    0.7945 S   0  0  0  0  0
    0.1125    0.3194   -1.6027 N   0  0  0  0  0
   -1.4480    0.0903   -0.2108 H   0  0  0  0  0
   -0.4164   -2.8612    1.3626 H   0  0  0  0  0
    1.3836    1.0010    0.6536 H   0  0  0  0  0
    0.1171    0.5730    1.8120 H   0  0  0  0  0
   -0.1981    2.9975   -0.4348 H   0  0  0  0  0
   -0.3706   -0.2499   -2.2638 H   0  0  0  0  0
    1.0971    0.1791   -1.6955 H   0  0  0  0  0
  1  2  1  0  0  0
  1  5  1  0  0  0
  1  7  1  0  0  0
  1  8  1  0  0  0
  2  3  2  0  0  0
  2  4  1  0  0  0
  4  9  1  0  0  0
  5  6  1  0  0  0
  5 10  1  0  0  0
  5 11  1  0  0  0
  6 12  1  0  0  0
  7 13  1  0  0  0
  7 14  1  0  0  0
M  END
