(2R)-2-Aminopentanedioic acid
 OpenBabel01030815083D

 19 18  0  0  0  0  0  0  0  0999 V2000
    2.0108   -0.4503   -1.2505 C   0  0  0  0  0
    0.6729   -0.8281   -0.6188 C   0  0  0  0  0
   -0.2728   -1.4184   -1.5941 N   0  0  0  0  0
    0.0710    0.4205    0.0417 C   0  0  0  0  0
    0.8520    0.9316    0.6410 H   0  0  0  0  0
   -0.2436    1.1568   -0.7264 H   0  0  0  0  0
   -1.1054    0.0603    0.9350 C   0  0  0  0  0
   -1.8988   -0.4504    0.3507 H   0  0  0  0  0
   -0.7934   -0.6638    1.7158 H   0  0  0  0  0
   -1.6990    1.2698    1.6074 C   0  0  0  0  0
   -1.3691    2.4409    1.5517 O   0  0  0  0  0
   -2.7675    1.0033    2.3979 O   0  0  0  0  0
   -3.0913    1.8098    2.7869 H   0  0  0  0  0
    3.0530   -0.3670   -0.3946 O   0  0  0  0  0
    2.2594   -0.2284   -2.4219 O   0  0  0  0  0
    0.8543   -1.6122    0.1600 H   0  0  0  0  0
    0.1420   -2.2162   -2.0260 H   0  0  0  0  0
   -0.5164   -0.7477   -2.2927 H   0  0  0  0  0
    3.8419   -0.1107   -0.8628 H   0  0  0  0  0
  1  2  1  0  0  0
  1 14  1  0  0  0
  1 15  2  0  0  0
  2  3  1  0  0  0
  2  4  1  0  0  0
  2 16  1  0  0  0
  3 17  1  0  0  0
  3 18  1  0  0  0
  4  5  1  0  0  0
  4  6  1  0  0  0
  4  7  1  0  0  0
  7  8  1  0  0  0
  7  9  1  0  0  0
  7 10  1  0  0  0
 10 11  2  0  0  0
 10 12  1  0  0  0
 12 13  1  0  0  0
 14 19  1  0  0  0
M  END
