(2R)-2-Amino-3-(3H-imidazol-4-yl)propanoic acid
 OpenBabel01030815083D

 20 20  0  0  0  0  0  0  0  0999 V2000
    2.4457    0.7813   -0.1587 C   0  0  0  0  0
    0.9208    0.7662   -0.0945 C   0  0  0  0  0
    0.4541   -0.6462    0.3027 C   0  0  0  0  0
    0.6365   -0.8346    1.3816 H   0  0  0  0  0
    1.0544   -1.4016   -0.2436 H   0  0  0  0  0
   -0.9683   -0.8769   -0.0260 C   0  0  0  0  0
   -2.0563   -0.2138    0.5687 N   0  0  0  0  0
   -1.9779    0.5230    1.2221 H   0  0  0  0  0
   -3.2334   -0.7015    0.0147 C   0  0  0  0  0
   -4.2507   -0.3869    0.2586 H   0  0  0  0  0
   -2.9063   -1.6541   -0.8864 N   0  0  0  0  0
   -1.5237   -1.7771   -0.9286 C   0  0  0  0  0
   -1.0289   -2.4893   -1.5871 H   0  0  0  0  0
    0.3837    1.7746    0.8505 N   0  0  0  0  0
    3.2338    1.1854    0.6781 O   0  0  0  0  0
    2.9834    0.2915   -1.2963 O   0  0  0  0  0
    0.5143    1.0176   -1.1069 H   0  0  0  0  0
    0.6255    2.6908    0.5379 H   0  0  0  0  0
    0.7589    1.6261    1.7647 H   0  0  0  0  0
    3.9343    0.3258   -1.2515 H   0  0  0  0  0
  1  2  1  0  0  0
  1 16  1  0  0  0
  1 15  2  0  0  0
  2  3  1  0  0  0
  2 14  1  0  0  0
  2 17  1  0  0  0
  3  4  1  0  0  0
  3  5  1  0  0  0
  3  6  1  0  0  0
  6  7  1  0  0  0
  6 12  2  0  0  0
  7  8  1  0  0  0
  7  9  1  0  0  0
  9 10  1  0  0  0
  9 11  2  0  0  0
 11 12  1  0  0  0
 12 13  1  0  0  0
 14 18  1  0  0  0
 14 19  1  0  0  0
 16 20  1  0  0  0
M  END
