(2R,3R)-2-Amino-3-methylpentanoic acid
 OpenBabel01030815083D

 22 21  0  0  0  0  0  0  0  0999 V2000
    1.1122    0.4082   -1.5752 H   0  0  0  0  0
    0.6849   -0.4678   -1.0221 C   0  0  0  0  0
    1.8451   -1.2813   -0.5780 N   0  0  0  0  0
    1.5357   -2.1390   -0.1707 H   0  0  0  0  0
    2.3431   -0.7532    0.1149 H   0  0  0  0  0
   -0.1941    0.0571    0.1364 C   0  0  0  0  0
   -0.5792   -0.8146    0.7230 H   0  0  0  0  0
   -1.3800    0.8497   -0.3897 C   0  0  0  0  0
   -1.9061    1.3367    0.4491 H   0  0  0  0  0
   -2.1000    0.2094   -0.9142 H   0  0  0  0  0
   -1.0680    1.6398   -1.0860 H   0  0  0  0  0
    0.6386    0.9430    1.0701 C   0  0  0  0  0
    1.6000    0.4405    1.3162 H   0  0  0  0  0
    0.9196    1.8776    0.5440 H   0  0  0  0  0
   -0.1210    1.2674    2.3369 C   0  0  0  0  0
    0.4036    2.0179    2.9403 H   0  0  0  0  0
   -0.2660    0.3789    2.9650 H   0  0  0  0  0
   -1.1213    1.6645    2.0937 H   0  0  0  0  0
   -0.1397   -1.2859   -2.0085 C   0  0  0  0  0
   -0.3770   -1.0354   -3.1751 O   0  0  0  0  0
   -0.6806   -2.4344   -1.5355 O   0  0  0  0  0
   -1.1498   -2.8791   -2.2347 H   0  0  0  0  0
  1  2  1  0  0  0
  2  3  1  0  0  0
  2  6  1  0  0  0
  2 19  1  0  0  0
  3  4  1  0  0  0
  3  5  1  0  0  0
  6  7  1  0  0  0
  6  8  1  0  0  0
  6 12  1  0  0  0
  8  9  1  0  0  0
  8 10  1  0  0  0
  8 11  1  0  0  0
 12 13  1  0  0  0
 12 14  1  0  0  0
 12 15  1  0  0  0
 15 16  1  0  0  0
 15 17  1  0  0  0
 15 18  1  0  0  0
 19 20  2  0  0  0
 19 21  1  0  0  0
 21 22  1  0  0  0
M  END
