(2R)-2,6-Diaminohexanoic acid
 OpenBabel01030815083D

 24 23  0  0  0  0  0  0  0  0999 V2000
    0.1044    1.3839   -1.5603 C   0  0  0  0  0
    1.3284    2.0735   -2.1591 C   0  0  0  0  0
    0.5481    0.5760   -0.3327 C   0  0  0  0  0
   -0.5247   -0.4045    0.1152 C   0  0  0  0  0
   -0.9713    2.3397   -1.2106 N   0  0  0  0  0
    1.7075    3.2207   -2.0031 O   0  0  0  0  0
    2.0836    1.3087   -2.9780 O   0  0  0  0  0
   -0.3282    0.6901   -2.3254 H   0  0  0  0  0
    0.8182    1.2538    0.5035 H   0  0  0  0  0
    1.4764    0.0209   -0.5783 H   0  0  0  0  0
   -1.4637    0.1346    0.3532 H   0  0  0  0  0
   -0.0641   -1.2005    1.3254 C   0  0  0  0  0
   -1.2115    2.8850   -2.0106 H   0  0  0  0  0
   -0.6766    2.9418   -0.4705 H   0  0  0  0  0
    2.8274    1.8094   -3.2996 H   0  0  0  0  0
   -0.7789   -1.0941   -0.7152 H   0  0  0  0  0
    0.1828   -0.5096    2.1575 H   0  0  0  0  0
    0.8808   -1.7321    1.0904 H   0  0  0  0  0
   -1.1384   -2.1947    1.7610 C   0  0  0  0  0
   -0.7817   -3.0038    2.9395 N   0  0  0  0  0
   -1.3729   -2.8942    0.9337 H   0  0  0  0  0
   -2.0831   -1.6632    1.9937 H   0  0  0  0  0
   -0.6052   -2.4062    3.7205 H   0  0  0  0  0
    0.0427   -3.5350    2.7496 H   0  0  0  0  0
  1  2  1  0  0  0
  1  3  1  0  0  0
  1  5  1  0  0  0
  1  8  1  0  0  0
  2  6  2  0  0  0
  2  7  1  0  0  0
  3  4  1  0  0  0
  3  9  1  0  0  0
  3 10  1  0  0  0
  4 11  1  0  0  0
  4 12  1  0  0  0
  4 16  1  0  0  0
  5 13  1  0  0  0
  5 14  1  0  0  0
  7 15  1  0  0  0
 12 17  1  0  0  0
 12 18  1  0  0  0
 12 19  1  0  0  0
 19 20  1  0  0  0
 19 21  1  0  0  0
 19 22  1  0  0  0
 20 23  1  0  0  0
 20 24  1  0  0  0
M  END
