(2R)-Pyrrolidine-2-carboxylic acid
 OpenBabel01030815083D

 17 17  0  0  0  0  0  0  0  0999 V2000
   -0.7296    0.3568   -1.5739 H   0  0  0  0  0
   -0.3641   -0.2119   -0.6798 C   0  0  0  0  0
   -0.9361   -1.6129   -0.8185 C   0  0  0  0  0
   -0.5796   -2.4994   -1.5763 O   0  0  0  0  0
   -2.0112   -1.9128   -0.0522 O   0  0  0  0  0
   -2.2754   -2.8135   -0.2172 H   0  0  0  0  0
    1.1296   -0.3047   -0.6514 N   0  0  0  0  0
    1.6580    0.7267    0.2826 C   0  0  0  0  0
    2.2948    0.1944    1.0148 H   0  0  0  0  0
    2.3139    1.4589   -0.2271 H   0  0  0  0  0
    0.4592    1.3988    0.9492 C   0  0  0  0  0
    0.3290    2.4348    0.5825 H   0  0  0  0  0
    0.5958    1.4878    2.0422 H   0  0  0  0  0
   -0.7521    0.5375    0.6021 C   0  0  0  0  0
   -1.6654    1.1428    0.4583 H   0  0  0  0  0
   -0.9824   -0.1603    1.4299 H   0  0  0  0  0
    1.5155   -0.2230   -1.5652 H   0  0  0  0  0
  1  2  1  0  0  0
  2  3  1  0  0  0
  2  7  1  0  0  0
  2 14  1  0  0  0
  3  4  2  0  0  0
  3  5  1  0  0  0
  5  6  1  0  0  0
  7  8  1  0  0  0
  7 17  1  0  0  0
  8  9  1  0  0  0
  8 10  1  0  0  0
  8 11  1  0  0  0
 11 12  1  0  0  0
 11 13  1  0  0  0
 11 14  1  0  0  0
 14 15  1  0  0  0
 14 16  1  0  0  0
M  END
