(2R,3S)-2-Amino-3-hydroxybutanoic acid
 OpenBabel01030815083D

 17 16  0  0  0  0  0  0  0  0999 V2000
    1.8046   -0.5216    1.1434 O   0  0  0  0  0
    0.6943    0.1938    0.6635 C   0  0  0  0  0
    1.0994    1.5875    0.1845 C   0  0  0  0  0
   -0.0612   -0.5619   -0.4711 C   0  0  0  0  0
   -0.1404   -2.0152   -0.2009 N   0  0  0  0  0
   -1.4262    0.0883   -0.6832 C   0  0  0  0  0
   -2.3629   -0.1732    0.2587 O   0  0  0  0  0
   -1.7863    0.8017   -1.6005 O   0  0  0  0  0
    2.3710   -0.7061    0.4040 H   0  0  0  0  0
    0.0601    0.2599    1.5785 H   0  0  0  0  0
    1.7673    1.5460   -0.6871 H   0  0  0  0  0
    1.6266    2.1384    0.9743 H   0  0  0  0  0
    0.2201    2.1787   -0.1009 H   0  0  0  0  0
    0.5160   -0.4654   -1.4267 H   0  0  0  0  0
   -0.7954   -2.4389   -0.8222 H   0  0  0  0  0
   -0.4110   -2.1847    0.7447 H   0  0  0  0  0
   -3.1761    0.2725    0.0412 H   0  0  0  0  0
  1  2  1  0  0  0
  1  9  1  0  0  0
  2  3  1  0  0  0
  2  4  1  0  0  0
  2 10  1  0  0  0
  3 11  1  0  0  0
  3 12  1  0  0  0
  3 13  1  0  0  0
  4  5  1  0  0  0
  4  6  1  0  0  0
  4 14  1  0  0  0
  5 15  1  0  0  0
  5 16  1  0  0  0
  6  7  1  0  0  0
  6  8  2  0  0  0
  7 17  1  0  0  0
M  END
