(2R)-2-Amino-3-(4-hydroxyphenyl)propanoic acid
 OpenBabel01030815083D

 24 24  0  0  0  0  0  0  0  0999 V2000
    2.9996   -0.8520   -1.1613 C   0  0  0  0  0
    1.5360   -0.8627   -0.7400 C   0  0  0  0  0
    1.1172    0.5725   -0.3737 C   0  0  0  0  0
    1.8362    0.9896    0.3596 H   0  0  0  0  0
    1.1776    1.2336   -1.2630 H   0  0  0  0  0
   -0.2564    0.6048    0.2127 C   0  0  0  0  0
   -1.3314    1.0960   -0.5319 C   0  0  0  0  0
   -1.1676    1.4588   -1.5536 H   0  0  0  0  0
   -2.6079    1.1375    0.0104 C   0  0  0  0  0
   -3.4494    1.5236   -0.5760 H   0  0  0  0  0
   -2.8075    0.6798    1.3203 C   0  0  0  0  0
   -1.7367    0.1881    2.0793 C   0  0  0  0  0
   -1.8892   -0.1678    3.1048 H   0  0  0  0  0
   -0.4677    0.1563    1.5177 C   0  0  0  0  0
    0.3771   -0.2240    2.1043 H   0  0  0  0  0
   -4.0885    0.7467    1.7930 O   0  0  0  0  0
   -4.0906    0.4122    2.6813 H   0  0  0  0  0
    0.7411   -1.4782   -1.8285 N   0  0  0  0  0
    3.8439   -1.4650   -0.3009 O   0  0  0  0  0
    3.5096   -0.3570   -2.1496 O   0  0  0  0  0
    1.4013   -1.5217    0.1563 H   0  0  0  0  0
    0.8380   -0.9482   -2.6697 H   0  0  0  0  0
   -0.2195   -1.4923   -1.5555 H   0  0  0  0  0
    4.7346   -1.4306   -0.6361 H   0  0  0  0  0
  1  2  1  0  0  0
  1 19  1  0  0  0
  1 20  2  0  0  0
  2  3  1  0  0  0
  2 18  1  0  0  0
  2 21  1  0  0  0
  3  4  1  0  0  0
  3  5  1  0  0  0
  3  6  1  0  0  0
  6  7  1  0  0  0
  6 14  2  0  0  0
  7  8  1  0  0  0
  7  9  2  0  0  0
  9 10  1  0  0  0
  9 11  1  0  0  0
 11 12  2  0  0  0
 11 16  1  0  0  0
 12 13  1  0  0  0
 12 14  1  0  0  0
 14 15  1  0  0  0
 16 17  1  0  0  0
 18 22  1  0  0  0
 18 23  1  0  0  0
 19 24  1  0  0  0
M  END
