(S)-2-Amino-3-(4-nitrophenyl)propanoic acid
 OpenBabel01030815083D

 25 25  0  0  0  0  0  0  0  0999 V2000
    1.5177   -0.7268    0.1667 C   0  0  0  0  0
    1.6681   -2.0918   -0.0424 C   0  0  0  0  0
    0.5628   -2.9429    0.0696 C   0  0  0  0  0
   -0.6924   -2.4111    0.3906 C   0  0  0  0  0
   -0.8341   -1.0463    0.5961 C   0  0  0  0  0
    0.2678   -0.1948    0.4851 C   0  0  0  0  0
    0.7201   -4.4137   -0.1543 N   0  0  0  0  0
    1.8143   -4.8630   -0.4337 O   0  0  0  0  0
   -0.2487   -5.1408   -0.0526 O   0  0  0  0  0
    0.1032    1.2724    0.7190 C   0  0  0  0  0
   -0.6006    1.9557   -0.4656 C   0  0  0  0  0
   -1.0590    3.3440   -0.0228 C   0  0  0  0  0
   -0.5145    4.4171   -0.2091 O   0  0  0  0  0
   -2.2267    3.3768    0.6563 O   0  0  0  0  0
    0.2836    1.9958   -1.6515 N   0  0  0  0  0
    2.3876   -0.0653    0.0720 H   0  0  0  0  0
    2.6601   -2.4912   -0.2970 H   0  0  0  0  0
   -1.5716   -3.0645    0.4827 H   0  0  0  0  0
   -1.8187   -0.6331    0.8475 H   0  0  0  0  0
    1.0864    1.7473    0.9179 H   0  0  0  0  0
   -0.4961    1.4224    1.6405 H   0  0  0  0  0
   -1.4990    1.3527   -0.7567 H   0  0  0  0  0
   -2.4408    4.2724    0.9000 H   0  0  0  0  0
    1.1220    2.4977   -1.4457 H   0  0  0  0  0
   -0.1912    2.4311   -2.4128 H   0  0  0  0  0
  1  2  1  0  0  0
  6  1  2  0  0  0
  1 16  1  0  0  0
  2  3  2  0  0  0
  2 17  1  0  0  0
  3  4  1  0  0  0
  3  7  1  0  0  0
  4  5  2  0  0  0
  4 18  1  0  0  0
  5  6  1  0  0  0
  5 19  1  0  0  0
  6 10  1  0  0  0
  7  8  2  0  0  0
  7  9  2  0  0  0
 10 11  1  0  0  0
 10 20  1  0  0  0
 10 21  1  0  0  0
 11 12  1  0  0  0
 11 15  1  0  0  0
 11 22  1  0  0  0
 12 13  2  0  0  0
 12 14  1  0  0  0
 14 23  1  0  0  0
 15 24  1  0  0  0
 15 25  1  0  0  0
M  END
