(2S,3R)-2-Amino-3-methylpentanoic acid
 OpenBabel01030815083D

 22 21  0  0  0  0  0  0  0  0999 V2000
    2.3704    0.2036   -0.1560 C   0  0  0  0  0
    1.1238   -0.6709   -0.0993 C   0  0  0  0  0
   -0.1356    0.2259   -0.1513 C   0  0  0  0  0
   -1.3725   -0.6002   -0.5198 C   0  0  0  0  0
   -2.5449    0.2958   -0.8573 C   0  0  0  0  0
    2.9331    0.8146    0.7339 O   0  0  0  0  0
    2.9195    0.3226   -1.3875 O   0  0  0  0  0
    1.2354   -1.5847    1.0610 N   0  0  0  0  0
    1.1118   -1.3400   -0.9994 H   0  0  0  0  0
    0.0291    0.9680   -0.9728 H   0  0  0  0  0
   -0.3865    0.9955    1.1350 C   0  0  0  0  0
   -1.6450   -1.2744    0.3171 H   0  0  0  0  0
   -1.1470   -1.2632   -1.3789 H   0  0  0  0  0
   -2.3860    0.8364   -1.7994 H   0  0  0  0  0
   -2.6953    1.0519   -0.0680 H   0  0  0  0  0
   -3.4740   -0.2776   -0.9579 H   0  0  0  0  0
    3.6947    0.8743   -1.3466 H   0  0  0  0  0
    0.3928   -2.1157    1.1365 H   0  0  0  0  0
    1.3774   -1.0676    1.9043 H   0  0  0  0  0
   -1.3130    1.5871    1.0364 H   0  0  0  0  0
    0.4352    1.6843    1.3682 H   0  0  0  0  0
   -0.5236    0.3344    2.0017 H   0  0  0  0  0
  1  2  1  0  0  0
  1  6  2  0  0  0
  1  7  1  0  0  0
  2  3  1  0  0  0
  2  8  1  0  0  0
  2  9  1  0  0  0
  3  4  1  0  0  0
  3 10  1  0  0  0
  3 11  1  0  0  0
  4  5  1  0  0  0
  4 12  1  0  0  0
  4 13  1  0  0  0
  5 14  1  0  0  0
  5 15  1  0  0  0
  5 16  1  0  0  0
 17  7  1  0  0  0
  8 18  1  0  0  0
  8 19  1  0  0  0
 11 20  1  0  0  0
 11 21  1  0  0  0
 11 22  1  0  0  0
M  END
