(2S)-2-Aminopropanoic acid
 OpenBabel01030815083D

 13 12  0  0  0  0  0  0  0  0999 V2000
    2.0243   -0.2947    1.1111 H   0  0  0  0  0
    1.6374   -0.3449    0.1925 N   0  0  0  0  0
    1.9612    0.4308   -0.3469 H   0  0  0  0  0
    0.1575   -0.3232    0.2919 C   0  0  0  0  0
   -0.1277   -1.2452    0.8595 H   0  0  0  0  0
   -0.4039    0.9023    1.0065 C   0  0  0  0  0
   -0.0268    0.9689    2.0362 H   0  0  0  0  0
   -0.1397    1.8391    0.4964 H   0  0  0  0  0
   -1.4992    0.8587    1.0643 H   0  0  0  0  0
   -0.4220   -0.3888   -1.1152 C   0  0  0  0  0
   -0.1965    0.3289   -2.0720 O   0  0  0  0  0
   -1.3271   -1.3742   -1.3121 O   0  0  0  0  0
   -1.6377   -1.3579   -2.2121 H   0  0  0  0  0
  1  2  1  0  0  0
  2  3  1  0  0  0
  2  4  1  0  0  0
  4  5  1  0  0  0
  4  6  1  0  0  0
  4 10  1  0  0  0
  6  7  1  0  0  0
  6  8  1  0  0  0
  6  9  1  0  0  0
 10 11  2  0  0  0
 10 12  1  0  0  0
 12 13  1  0  0  0
M  END
