(2S)-2-Amino-5-(diaminomethylideneamino)pentanoic acid
 OpenBabel01030815083D

 26 25  0  0  0  0  0  0  0  0999 V2000
    1.1546   -2.9876   -0.9867 N   0  0  0  0  0
    1.6306   -1.6150   -1.2818 C   0  0  0  0  0
    3.1550   -1.6431   -1.2914 C   0  0  0  0  0
    3.9204   -1.9739   -0.4046 O   0  0  0  0  0
    3.7239   -1.2262   -2.4449 O   0  0  0  0  0
    1.1653   -0.5386   -0.2889 C   0  0  0  0  0
    1.7666    0.3808   -0.4412 H   0  0  0  0  0
    1.3722   -0.8578    0.7538 H   0  0  0  0  0
   -0.3100   -0.2082   -0.4555 C   0  0  0  0  0
   -0.9307   -1.1117   -0.2859 H   0  0  0  0  0
   -0.5111    0.0996   -1.5028 H   0  0  0  0  0
   -0.7166    0.8984    0.5135 C   0  0  0  0  0
   -0.1180    1.8145    0.3193 H   0  0  0  0  0
   -0.4867    0.5941    1.5549 H   0  0  0  0  0
   -2.1796    1.1556    0.4094 N   0  0  0  0  0
   -2.4297    1.3309   -0.5428 H   0  0  0  0  0
   -2.6784    2.2034    1.2835 C   0  0  0  0  0
   -3.1883    3.2583    0.7240 N   0  0  0  0  0
   -3.6092    3.9334    1.3121 H   0  0  0  0  0
   -2.5450    1.9922    2.6991 N   0  0  0  0  0
   -2.4261    1.0320    2.9386 H   0  0  0  0  0
   -3.3025    2.3952    3.2068 H   0  0  0  0  0
    0.1568   -3.0023   -1.0184 H   0  0  0  0  0
    1.4629   -3.2753   -0.0814 H   0  0  0  0  0
    1.2516   -1.3637   -2.3058 H   0  0  0  0  0
    4.6722   -1.2851   -2.3829 H   0  0  0  0  0
  1  2  1  0  0  0
  1 23  1  0  0  0
  1 24  1  0  0  0
  2  3  1  0  0  0
  2  6  1  0  0  0
  2 25  1  0  0  0
  3  4  2  0  0  0
  3  5  1  0  0  0
  5 26  1  0  0  0
  6  7  1  0  0  0
  6  8  1  0  0  0
  6  9  1  0  0  0
  9 10  1  0  0  0
  9 11  1  0  0  0
  9 12  1  0  0  0
 12 13  1  0  0  0
 12 14  1  0  0  0
 12 15  1  0  0  0
 15 16  1  0  0  0
 15 17  1  0  0  0
 17 18  2  0  0  0
 17 20  1  0  0  0
 18 19  1  0  0  0
 20 21  1  0  0  0
 20 22  1  0  0  0
M  END
