(2S)-2-Amino-3-carbamoylpropanoic acid
 OpenBabel01030815083D

 17 16  0  0  0  0  0  0  0  0999 V2000
    2.7197   -0.9249    0.2173 O   0  0  0  0  0
    1.8110   -0.7107   -0.5626 C   0  0  0  0  0
    2.1675   -0.4749   -1.8459 O   0  0  0  0  0
    0.3099   -0.6466   -0.2965 C   0  0  0  0  0
   -0.1127   -1.9587    0.2445 N   0  0  0  0  0
    0.0314    0.5573    0.6191 C   0  0  0  0  0
    0.4237    0.3707    1.6409 H   0  0  0  0  0
    0.5868    1.4429    0.2484 H   0  0  0  0  0
   -1.4554    0.8409    0.7038 C   0  0  0  0  0
   -2.2452    0.1920    1.3840 O   0  0  0  0  0
   -1.9810    1.9007   -0.0308 N   0  0  0  0  0
   -1.3965    2.4644   -0.5965 H   0  0  0  0  0
   -2.9483    2.1139    0.0059 H   0  0  0  0  0
    3.1107   -0.5600   -1.9461 H   0  0  0  0  0
   -0.2372   -0.5124   -1.2642 H   0  0  0  0  0
   -1.1053   -1.9699    0.3499 H   0  0  0  0  0
    0.3208   -2.1248    1.1287 H   0  0  0  0  0
  1  2  2  0  0  0
  2  3  1  0  0  0
  2  4  1  0  0  0
  3 14  1  0  0  0
  4  5  1  0  0  0
  4  6  1  0  0  0
  4 15  1  0  0  0
  5 16  1  0  0  0
  5 17  1  0  0  0
  6  7  1  0  0  0
  6  8  1  0  0  0
  6  9  1  0  0  0
  9 10  2  0  0  0
  9 11  1  0  0  0
 11 12  1  0  0  0
 11 13  1  0  0  0
M  END
