(2R)-2-Amino-3-sulfanylpropanoic acid
 OpenBabel01030815083D

 14 13  0  0  0  0  0  0  0  0999 V2000
   -0.3293   -1.0929    0.8173 H   0  0  0  0  0
    0.0416   -0.3832    0.0326 C   0  0  0  0  0
    1.4410   -0.7711   -0.2587 N   0  0  0  0  0
    1.8111   -0.2074   -0.9957 H   0  0  0  0  0
    1.4741   -1.7320   -0.5242 H   0  0  0  0  0
   -0.0065    1.0467    0.5803 C   0  0  0  0  0
    0.6036    1.7260   -0.0457 H   0  0  0  0  0
   -0.8766   -0.4842   -1.1915 C   0  0  0  0  0
   -0.5422   -0.5588   -2.3548 O   0  0  0  0  0
   -2.2210   -0.5139   -1.0705 O   0  0  0  0  0
   -2.4788   -0.4479   -0.1592 H   0  0  0  0  0
    0.4432    1.2023    2.3330 S   0  0  0  0  0
   -1.0410    1.4423    0.5282 H   0  0  0  0  0
    1.6808    0.7741    2.3089 H   0  0  0  0  0
  1  2  1  0  0  0
  2  3  1  0  0  0
  2  6  1  0  0  0
  2  8  1  0  0  0
  3  4  1  0  0  0
  3  5  1  0  0  0
  6  7  1  0  0  0
  6 12  1  0  0  0
  6 13  1  0  0  0
  8  9  2  0  0  0
  8 10  1  0  0  0
 10 11  1  0  0  0
 12 14  1  0  0  0
M  END
