(2S)-2-Amino-3-phenylpropanoic acid
 OpenBabel01030815083D

 23 23  0  0  0  0  0  0  0  0999 V2000
    1.0491   -2.0557   -0.1423 N   0  0  0  0  0
    1.4642   -0.6924   -0.5480 C   0  0  0  0  0
    0.9722    0.4308    0.3819 C   0  0  0  0  0
   -0.5172    0.5482    0.3558 C   0  0  0  0  0
   -1.1568    1.0801   -0.7661 C   0  0  0  0  0
   -2.5409    1.2011   -0.7885 C   0  0  0  0  0
   -3.2953    0.7956    0.3081 C   0  0  0  0  0
   -2.6621    0.2689    1.4283 C   0  0  0  0  0
   -1.2771    0.1444    1.4543 C   0  0  0  0  0
    2.9860   -0.6501   -0.6004 C   0  0  0  0  0
    3.5035   -0.2618   -1.7879 O   0  0  0  0  0
    3.7908   -0.8999    0.2781 O   0  0  0  0  0
    0.0514   -2.0944   -0.1210 H   0  0  0  0  0
    1.4084   -2.2713    0.7645 H   0  0  0  0  0
    1.0421   -0.5287   -1.5733 H   0  0  0  0  0
    1.4168    1.3946    0.0623 H   0  0  0  0  0
    1.3327    0.2624    1.4180 H   0  0  0  0  0
   -0.5627    1.4035   -1.6289 H   0  0  0  0  0
   -3.0376    1.6175   -1.6710 H   0  0  0  0  0
   -4.3857    0.8927    0.2893 H   0  0  0  0  0
   -3.2537   -0.0481    2.2935 H   0  0  0  0  0
   -0.7829   -0.2654    2.3429 H   0  0  0  0  0
    4.4549   -0.2721   -1.7496 H   0  0  0  0  0
  1  2  1  0  0  0
  1 13  1  0  0  0
  1 14  1  0  0  0
  2  3  1  0  0  0
  2 10  1  0  0  0
  2 15  1  0  0  0
  3  4  1  0  0  0
  3 16  1  0  0  0
  3 17  1  0  0  0
  4  5  1  0  0  0
  4  9  2  0  0  0
  5  6  2  0  0  0
  5 18  1  0  0  0
  6  7  1  0  0  0
  6 19  1  0  0  0
  7  8  2  0  0  0
  7 20  1  0  0  0
  8  9  1  0  0  0
  8 21  1  0  0  0
  9 22  1  0  0  0
 10 11  1  0  0  0
 10 12  2  0  0  0
 11 23  1  0  0  0
M  END
