(2S,3R)-2-Amino-3-hydroxybutanoic acid
 OpenBabel01030815083D

 17 16  0  0  0  0  0  0  0  0999 V2000
   -0.2317    0.0594   -2.0686 C   0  0  0  0  0
   -0.2696   -0.5636   -0.6752 C   0  0  0  0  0
   -0.0303    0.5211    0.4176 C   0  0  0  0  0
    1.3509    1.0516    0.3693 N   0  0  0  0  0
    0.5981   -1.6627   -0.5500 O   0  0  0  0  0
   -0.4020   -0.0254    1.7914 C   0  0  0  0  0
    0.3275   -0.2506    2.7404 O   0  0  0  0  0
   -1.7190   -0.2593    1.9887 O   0  0  0  0  0
   -0.4053   -0.6988   -2.8437 H   0  0  0  0  0
    0.7333    0.5377   -2.2860 H   0  0  0  0  0
   -1.0108    0.8248   -2.1763 H   0  0  0  0  0
   -1.2614   -1.0419   -0.4948 H   0  0  0  0  0
   -0.7123    1.3799    0.1915 H   0  0  0  0  0
    2.0067    0.3416    0.6218 H   0  0  0  0  0
    1.4353    1.8169    1.0040 H   0  0  0  0  0
    1.4481   -1.4075   -0.8880 H   0  0  0  0  0
   -1.8576   -0.6232    2.8578 H   0  0  0  0  0
  1  2  1  0  0  0
  1  9  1  0  0  0
  1 10  1  0  0  0
  1 11  1  0  0  0
  2  3  1  0  0  0
  2  5  1  0  0  0
  2 12  1  0  0  0
  3  4  1  0  0  0
  3  6  1  0  0  0
  3 13  1  0  0  0
  4 14  1  0  0  0
  4 15  1  0  0  0
  5 16  1  0  0  0
  6  7  2  0  0  0
  6  8  1  0  0  0
  8 17  1  0  0  0
M  END
