2-Methylpropan-2-ol
 OpenBabel01030815083D

 15 14  0  0  0  0  0  0  0  0999 V2000
    1.8998   -0.7498   -0.7709 H   0  0  0  0  0
    1.3863   -0.3842    0.1279 C   0  0  0  0  0
    1.5905   -1.0965    0.9386 H   0  0  0  0  0
    1.8454    0.5728    0.4064 H   0  0  0  0  0
   -0.1194   -0.2164   -0.1156 C   0  0  0  0  0
   -0.8017    0.2639    1.1721 C   0  0  0  0  0
   -0.6394   -0.4351    2.0036 H   0  0  0  0  0
   -1.8859    0.3701    1.0360 H   0  0  0  0  0
   -0.4084    1.2407    1.4810 H   0  0  0  0  0
   -0.3601    0.7897   -1.2444 C   0  0  0  0  0
    0.0582    1.7704   -0.9841 H   0  0  0  0  0
   -1.4316    0.9245   -1.4418 H   0  0  0  0  0
    0.1097    0.4636   -2.1816 H   0  0  0  0  0
   -0.6943   -1.4413   -0.5595 O   0  0  0  0  0
   -0.5491   -2.0725    0.1325 H   0  0  0  0  0
  1  2  1  0  0  0
  2  3  1  0  0  0
  2  4  1  0  0  0
  2  5  1  0  0  0
  5  6  1  0  0  0
  5 10  1  0  0  0
  5 14  1  0  0  0
  6  7  1  0  0  0
  6  8  1  0  0  0
  6  9  1  0  0  0
 10 11  1  0  0  0
 10 12  1  0  0  0
 10 13  1  0  0  0
 14 15  1  0  0  0
M  END
