2,2,2-Trifluoroethanol
 OpenBabel01030815083D

  9  8  0  0  0  0  0  0  0  0999 V2000
   -0.8780    0.2569    0.3510 C   0  0  0  0  0
    0.3957   -0.3971   -0.2936 C   0  0  0  0  0
   -1.9737   -0.5305    0.2566 F   0  0  0  0  0
   -0.7549    0.5223    1.6678 F   0  0  0  0  0
   -1.2425    1.4261   -0.2143 F   0  0  0  0  0
    0.6094   -1.3579    0.2109 H   0  0  0  0  0
    1.4319    0.5275   -0.1127 O   0  0  0  0  0
    0.2035   -0.5954   -1.3645 H   0  0  0  0  0
    2.2085    0.1481   -0.5012 H   0  0  0  0  0
  1  2  1  0  0  0
  1  3  1  0  0  0
  1  4  1  0  0  0
  1  5  1  0  0  0
  2  6  1  0  0  0
  2  7  1  0  0  0
  2  8  1  0  0  0
  7  9  1  0  0  0
M  END
