(2S)-Hexan-2-ol
 OpenBabel01030815083D

 21 20  0  0  0  0  0  0  0  0999 V2000
    3.5100    0.1961    2.2641 H   0  0  0  0  0
    3.0231    0.1753    1.2809 C   0  0  0  0  0
    3.3219    1.0873    0.7472 H   0  0  0  0  0
    3.4387   -0.6768    0.7266 H   0  0  0  0  0
    1.5204    0.0736    1.4141 C   0  0  0  0  0
    1.2523   -0.8371    1.9859 H   0  0  0  0  0
    1.1352    0.9236    2.0120 H   0  0  0  0  0
    0.8421    0.0470    0.0533 C   0  0  0  0  0
    1.1100    0.9586   -0.5185 H   0  0  0  0  0
    1.2278   -0.8032   -0.5439 H   0  0  0  0  0
   -0.6678   -0.0575    0.1936 C   0  0  0  0  0
   -0.9342   -0.9719    0.7614 H   0  0  0  0  0
   -1.0478    0.7921    0.7963 H   0  0  0  0  0
   -1.3772   -0.0552   -1.1675 C   0  0  0  0  0
   -0.9343    0.7369   -1.8219 H   0  0  0  0  0
   -1.1399   -1.3185   -1.7647 O   0  0  0  0  0
   -1.6107   -1.3204   -2.5872 H   0  0  0  0  0
   -2.8731    0.2080   -0.9927 C   0  0  0  0  0
   -3.3469   -0.5471   -0.3516 H   0  0  0  0  0
   -3.0473    1.1888   -0.5322 H   0  0  0  0  0
   -3.4024    0.2002   -1.9551 H   0  0  0  0  0
  1  2  1  0  0  0
  2  3  1  0  0  0
  2  4  1  0  0  0
  2  5  1  0  0  0
  5  6  1  0  0  0
  5  7  1  0  0  0
  5  8  1  0  0  0
  8  9  1  0  0  0
  8 10  1  0  0  0
  8 11  1  0  0  0
 11 12  1  0  0  0
 11 13  1  0  0  0
 11 14  1  0  0  0
 14 15  1  0  0  0
 14 16  1  0  0  0
 14 18  1  0  0  0
 16 17  1  0  0  0
 18 19  1  0  0  0
 18 20  1  0  0  0
 18 21  1  0  0  0
M  END
