(2S)-Octan-2-ol
 OpenBabel01030815083D

 27 26  0  0  0  0  0  0  0  0999 V2000
    4.5568    0.2603    2.9796 H   0  0  0  0  0
    4.0914    0.2581    1.9858 C   0  0  0  0  0
    4.3852    1.1895    1.4837 H   0  0  0  0  0
    4.5340   -0.5711    1.4179 H   0  0  0  0  0
    2.5883    0.1270    2.0833 C   0  0  0  0  0
    2.3239   -0.8039    2.6233 H   0  0  0  0  0
    2.1752    0.9528    2.6962 H   0  0  0  0  0
    1.9391    0.1289    0.7086 C   0  0  0  0  0
    2.2014    1.0611    0.1687 H   0  0  0  0  0
    2.3536   -0.6957    0.0943 H   0  0  0  0  0
    0.4284   -0.0069    0.8081 C   0  0  0  0  0
    0.1673   -0.9420    1.3436 H   0  0  0  0  0
    0.0144    0.8149    1.4268 H   0  0  0  0  0
   -0.2180    0.0005   -0.5680 C   0  0  0  0  0
    0.0430    0.9364   -1.1026 H   0  0  0  0  0
    0.1969   -0.8211   -1.1855 H   0  0  0  0  0
   -1.7283   -0.1381   -0.4650 C   0  0  0  0  0
   -1.9884   -1.0768    0.0648 H   0  0  0  0  0
   -2.1383    0.6824    0.1581 H   0  0  0  0  0
   -2.4079   -0.1019   -1.8407 C   0  0  0  0  0
   -1.9683    0.7222   -2.4567 H   0  0  0  0  0
   -2.1302   -1.3376   -2.4768 O   0  0  0  0  0
   -2.5849   -1.3210   -3.3081 H   0  0  0  0  0
   -3.9126    0.1235   -1.6900 C   0  0  0  0  0
   -4.3833   -0.6635   -1.0861 H   0  0  0  0  0
   -4.1178    1.0836   -1.1996 H   0  0  0  0  0
   -4.4209    0.1384   -2.6635 H   0  0  0  0  0
  1  2  1  0  0  0
  2  3  1  0  0  0
  2  4  1  0  0  0
  2  5  1  0  0  0
  5  6  1  0  0  0
  5  7  1  0  0  0
  5  8  1  0  0  0
  8  9  1  0  0  0
  8 10  1  0  0  0
  8 11  1  0  0  0
 11 12  1  0  0  0
 11 13  1  0  0  0
 11 14  1  0  0  0
 14 15  1  0  0  0
 14 16  1  0  0  0
 14 17  1  0  0  0
 17 18  1  0  0  0
 17 19  1  0  0  0
 17 20  1  0  0  0
 20 21  1  0  0  0
 20 22  1  0  0  0
 20 24  1  0  0  0
 22 23  1  0  0  0
 24 25  1  0  0  0
 24 26  1  0  0  0
 24 27  1  0  0  0
M  END
