Cyclopentanol
 OpenBabel01030815083D

 16 16  0  0  0  0  0  0  0  0999 V2000
    0.1272    1.0993   -0.2216 C   0  0  0  0  0
    1.2887    0.1219    0.0357 C   0  0  0  0  0
    0.7099   -1.2816   -0.0948 C   0  0  0  0  0
   -0.7808   -1.1552    0.1940 C   0  0  0  0  0
   -1.1727    0.2654   -0.1938 C   0  0  0  0  0
    0.1724    2.0942    0.7811 O   0  0  0  0  0
    0.2450    1.6002   -1.2117 H   0  0  0  0  0
    1.7265    0.2748    1.0421 H   0  0  0  0  0
    2.1174    0.2883   -0.6759 H   0  0  0  0  0
    1.2025   -1.9951    0.5897 H   0  0  0  0  0
    0.8775   -1.6810   -1.1132 H   0  0  0  0  0
   -0.9857   -1.3366    1.2661 H   0  0  0  0  0
   -1.3719   -1.9101   -0.3548 H   0  0  0  0  0
   -1.9232    0.6791    0.5060 H   0  0  0  0  0
   -1.6545    0.2816   -1.1890 H   0  0  0  0  0
   -0.5784    2.6550    0.6400 H   0  0  0  0  0
  1  2  1  0  0  0
  5  1  1  0  0  0
  1  6  1  0  0  0
  1  7  1  0  0  0
  2  3  1  0  0  0
  2  8  1  0  0  0
  2  9  1  0  0  0
  3  4  1  0  0  0
  3 10  1  0  0  0
  3 11  1  0  0  0
  4  5  1  0  0  0
  4 12  1  0  0  0
  4 13  1  0  0  0
  5 14  1  0  0  0
  5 15  1  0  0  0
  6 16  1  0  0  0
M  END
