Ethane-1,2-diol
 OpenBabel01030815083D

 10  9  0  0  0  0  0  0  0  0999 V2000
    1.4087   -0.1601    0.8271 H   0  0  0  0  0
    0.7738   -0.0776   -0.0721 C   0  0  0  0  0
    1.0666    0.8491   -0.6054 H   0  0  0  0  0
    1.1311   -1.2072   -0.8175 O   0  0  0  0  0
    0.6178   -1.1967   -1.6161 H   0  0  0  0  0
   -0.7254   -0.0571    0.2839 C   0  0  0  0  0
   -1.0160   -0.9328    0.8897 H   0  0  0  0  0
   -1.3496   -0.0613   -0.6322 H   0  0  0  0  0
   -1.0655    1.0242    1.1052 O   0  0  0  0  0
   -0.8415    1.8195    0.6376 H   0  0  0  0  0
  1  2  1  0  0  0
  2  3  1  0  0  0
  2  4  1  0  0  0
  2  6  1  0  0  0
  4  5  1  0  0  0
  6  7  1  0  0  0
  6  8  1  0  0  0
  6  9  1  0  0  0
  9 10  1  0  0  0
M  END
