Heptan-1-ol
 OpenBabel01030815083D

 24 23  0  0  0  0  0  0  0  0999 V2000
    4.2932   -0.3062    2.3211 H   0  0  0  0  0
    3.7467   -0.1789    1.3781 C   0  0  0  0  0
    4.0602    0.7798    0.9436 H   0  0  0  0  0
    4.0818   -0.9708    0.6949 H   0  0  0  0  0
    2.2517   -0.2288    1.5988 C   0  0  0  0  0
    1.9704   -1.1924    2.0684 H   0  0  0  0  0
    1.9495    0.5536    2.3232 H   0  0  0  0  0
    1.4908   -0.0476    0.2951 C   0  0  0  0  0
    1.7701    0.9176   -0.1736 H   0  0  0  0  0
    1.7950   -0.8284   -0.4309 H   0  0  0  0  0
   -0.0118   -0.1021    0.5179 C   0  0  0  0  0
   -0.2906   -1.0690    0.9835 H   0  0  0  0  0
   -0.3150    0.6765    1.2468 H   0  0  0  0  0
   -0.7702    0.0838   -0.7863 C   0  0  0  0  0
   -0.4928    1.0516   -1.2510 H   0  0  0  0  0
   -0.4660   -0.6940   -1.5156 H   0  0  0  0  0
   -2.2717    0.0253   -0.5654 C   0  0  0  0  0
   -2.5521   -0.9441   -0.1068 H   0  0  0  0  0
   -2.5785    0.7991    0.1677 H   0  0  0  0  0
   -3.0199    0.2208   -1.8846 C   0  0  0  0  0
   -2.7683    1.1997   -2.3386 H   0  0  0  0  0
   -4.4095    0.0883   -1.7525 O   0  0  0  0  0
   -2.7660   -0.5641   -2.6186 H   0  0  0  0  0
   -4.6970    0.7303   -1.1152 H   0  0  0  0  0
  1  2  1  0  0  0
  2  3  1  0  0  0
  2  4  1  0  0  0
  2  5  1  0  0  0
  5  6  1  0  0  0
  5  7  1  0  0  0
  5  8  1  0  0  0
  8  9  1  0  0  0
  8 10  1  0  0  0
  8 11  1  0  0  0
 11 12  1  0  0  0
 11 13  1  0  0  0
 11 14  1  0  0  0
 14 15  1  0  0  0
 14 16  1  0  0  0
 14 17  1  0  0  0
 17 18  1  0  0  0
 17 19  1  0  0  0
 17 20  1  0  0  0
 20 21  1  0  0  0
 20 22  1  0  0  0
 20 23  1  0  0  0
 22 24  1  0  0  0
M  END
