Nonan-1-ol
 OpenBabel01030815083D

 30 29  0  0  0  0  0  0  0  0999 V2000
    2.7492   -0.1536    0.0076 C   0  0  0  0  0
    1.4256    0.5895   -0.0712 C   0  0  0  0  0
    0.2482   -0.3681    0.0139 C   0  0  0  0  0
   -1.0755    0.3755   -0.0630 C   0  0  0  0  0
   -2.2526   -0.5824    0.0236 C   0  0  0  0  0
   -3.5754    0.1601   -0.0511 C   0  0  0  0  0
   -4.7486   -0.8164    0.0408 C   0  0  0  0  0
    3.9283    0.8026   -0.0761 C   0  0  0  0  0
    5.2458    0.0650    0.0023 C   0  0  0  0  0
   -5.9955   -0.1922   -0.1056 O   0  0  0  0  0
    2.8125   -0.9027   -0.8073 H   0  0  0  0  0
    2.8017   -0.7358    0.9498 H   0  0  0  0  0
    1.3734    1.1705   -1.0142 H   0  0  0  0  0
    1.3634    1.3395    0.7431 H   0  0  0  0  0
    0.3013   -0.9505    0.9559 H   0  0  0  0  0
    0.3096   -1.1169   -0.8015 H   0  0  0  0  0
   -1.1290    0.9566   -1.0058 H   0  0  0  0  0
   -1.1363    1.1253    0.7516 H   0  0  0  0  0
   -2.1979   -1.1656    0.9651 H   0  0  0  0  0
   -2.1932   -1.3302   -0.7929 H   0  0  0  0  0
   -3.6342    0.7408   -0.9933 H   0  0  0  0  0
   -3.6363    0.9106    0.7633 H   0  0  0  0  0
   -4.7129   -1.3863    0.9904 H   0  0  0  0  0
   -4.7389   -1.5458   -0.7882 H   0  0  0  0  0
    3.8646    1.5514    0.7385 H   0  0  0  0  0
    3.8755    1.3839   -1.0182 H   0  0  0  0  0
    5.3546   -0.6581   -0.8170 H   0  0  0  0  0
    5.3426   -0.4927    0.9434 H   0  0  0  0  0
   -6.0645    0.4679    0.5731 H   0  0  0  0  0
    6.0946    0.7581   -0.0570 H   0  0  0  0  0
  1  2  1  0  0  0
  1  8  1  0  0  0
  1 11  1  0  0  0
  1 12  1  0  0  0
  2  3  1  0  0  0
  2 13  1  0  0  0
  2 14  1  0  0  0
  3  4  1  0  0  0
  3 15  1  0  0  0
  3 16  1  0  0  0
  4  5  1  0  0  0
  4 17  1  0  0  0
  4 18  1  0  0  0
  5  6  1  0  0  0
  5 19  1  0  0  0
  5 20  1  0  0  0
  6  7  1  0  0  0
  6 21  1  0  0  0
  6 22  1  0  0  0
  7 10  1  0  0  0
  7 23  1  0  0  0
  7 24  1  0  0  0
  8  9  1  0  0  0
  8 25  1  0  0  0
  8 26  1  0  0  0
  9 27  1  0  0  0
  9 28  1  0  0  0
  9 30  1  0  0  0
 10 29  1  0  0  0
M  END
