Propan-1-ol
 OpenBabel01030815083D

 12 11  0  0  0  0  0  0  0  0999 V2000
    1.8959    0.0379    1.5638 H   0  0  0  0  0
    1.4355   -0.0086    0.5688 C   0  0  0  0  0
    1.8351    0.8303   -0.0167 H   0  0  0  0  0
    1.7823   -0.9343    0.0903 H   0  0  0  0  0
   -0.0723    0.0420    0.6617 C   0  0  0  0  0
   -0.4445   -0.7931    1.2876 H   0  0  0  0  0
   -0.3922    0.9664    1.1821 H   0  0  0  0  0
   -0.7014   -0.0229   -0.7283 C   0  0  0  0  0
   -0.3556    0.8226   -1.3560 H   0  0  0  0  0
   -0.4092   -0.9569   -1.2484 H   0  0  0  0  0
   -2.1006    0.0290   -0.5674 O   0  0  0  0  0
   -2.4729   -0.0122   -1.4374 H   0  0  0  0  0
  1  2  1  0  0  0
  2  3  1  0  0  0
  2  4  1  0  0  0
  2  5  1  0  0  0
  5  6  1  0  0  0
  5  7  1  0  0  0
  5  8  1  0  0  0
  8  9  1  0  0  0
  8 10  1  0  0  0
  8 11  1  0  0  0
 11 12  1  0  0  0
M  END
