Propan-2-ol
 OpenBabel01030815083D

 12 11  0  0  0  0  0  0  0  0999 V2000
    1.9689   -0.0280    1.0596 H   0  0  0  0  0
    1.3704   -0.0608    0.1401 C   0  0  0  0  0
    1.6286    0.8284   -0.4503 H   0  0  0  0  0
    1.6847   -0.9430   -0.4316 H   0  0  0  0  0
   -0.1224   -0.1250    0.4444 C   0  0  0  0  0
   -0.3423   -1.0422    1.0449 H   0  0  0  0  0
   -0.4255    1.0090    1.2385 O   0  0  0  0  0
   -1.3656    1.0131    1.3583 H   0  0  0  0  0
   -0.9398   -0.1540   -0.8460 C   0  0  0  0  0
   -0.7776    0.7473   -1.4520 H   0  0  0  0  0
   -0.6623   -1.0193   -1.4609 H   0  0  0  0  0
   -2.0171   -0.2255   -0.6451 H   0  0  0  0  0
  1  2  1  0  0  0
  2  3  1  0  0  0
  2  4  1  0  0  0
  2  5  1  0  0  0
  5  6  1  0  0  0
  5  7  1  0  0  0
  5  9  1  0  0  0
  7  8  1  0  0  0
  9 10  1  0  0  0
  9 11  1  0  0  0
  9 12  1  0  0  0
M  END
