(Z)-Hex-3-en-1-ol
 OpenBabel01030815083D

 19 18  0  0  0  0  0  0  0  0999 V2000
    0.8553   -1.6319    2.9004 O   0  0  0  0  0
    0.0574   -0.4837    2.7934 C   0  0  0  0  0
    0.1109    0.1710    1.4125 C   0  0  0  0  0
   -0.6271   -0.6044    0.3820 C   0  0  0  0  0
   -0.5607   -0.3527   -0.9278 C   0  0  0  0  0
    0.2712    0.7247   -1.5246 C   0  0  0  0  0
    0.0379    0.8723   -3.0119 C   0  0  0  0  0
    0.6032   -2.2157    2.1949 H   0  0  0  0  0
    0.4786    0.1805    3.5680 H   0  0  0  0  0
   -0.9862   -0.7194    3.0817 H   0  0  0  0  0
    1.1657    0.3146    1.0971 H   0  0  0  0  0
   -0.3244    1.1893    1.4753 H   0  0  0  0  0
   -1.2713   -1.4155    0.7447 H   0  0  0  0  0
   -1.1439   -0.9623   -1.6292 H   0  0  0  0  0
    1.3420    0.5098   -1.3255 H   0  0  0  0  0
    0.0607    1.6844   -1.0082 H   0  0  0  0  0
    0.2770   -0.0518   -3.5545 H   0  0  0  0  0
    0.6619    1.6708   -3.4329 H   0  0  0  0  0
   -1.0081    1.1199   -3.2351 H   0  0  0  0  0
  1  2  1  0  0  0
  1  8  1  0  0  0
  2  3  1  0  0  0
  2  9  1  0  0  0
  2 10  1  0  0  0
  3  4  1  0  0  0
  3 11  1  0  0  0
  3 12  1  0  0  0
  4  5  2  0  0  0
  4 13  1  0  0  0
  5  6  1  0  0  0
  5 14  1  0  0  0
  6  7  1  0  0  0
  6 15  1  0  0  0
  6 16  1  0  0  0
  7 17  1  0  0  0
  7 18  1  0  0  0
  7 19  1  0  0  0
M  END
