1,10-Phenanthroline
 OpenBabel01030815093D

 22 24  0  0  0  0  0  0  0  0999 V2000
    3.0978    0.9065    0.3664 C   0  0  0  0  0
    3.5114   -0.4005    0.0247 C   0  0  0  0  0
    2.5610   -1.3480   -0.2708 C   0  0  0  0  0
    1.1915   -0.9970   -0.2274 C   0  0  0  0  0
    0.8386    0.3225    0.1201 C   0  0  0  0  0
    1.8122    1.2534    0.4121 N   0  0  0  0  0
   -0.5644    0.6894    0.1668 C   0  0  0  0  0
   -1.5383   -0.2830   -0.1365 C   0  0  0  0  0
   -1.1394   -1.6155   -0.4856 C   0  0  0  0  0
    0.1712   -1.9583   -0.5292 C   0  0  0  0  0
   -2.2292    2.2994    0.5439 C   0  0  0  0  0
   -3.2495    1.3674    0.2498 C   0  0  0  0  0
   -2.9043    0.0811   -0.0889 C   0  0  0  0  0
    3.8174    1.6970    0.6103 H   0  0  0  0  0
    4.5786   -0.6417   -0.0003 H   0  0  0  0  0
    2.8467   -2.3712   -0.5397 H   0  0  0  0  0
   -1.9227   -2.3471   -0.7156 H   0  0  0  0  0
    0.4805   -2.9757   -0.7955 H   0  0  0  0  0
   -2.4536    3.3366    0.8193 H   0  0  0  0  0
   -4.2975    1.6793    0.2951 H   0  0  0  0  0
   -3.6699   -0.6671   -0.3228 H   0  0  0  0  0
   -0.9381    1.9725    0.5038 N   0  0  0  0  0
  1  2  2  0  0  0
  1  6  1  0  0  0
  1 14  1  0  0  0
  2  3  1  0  0  0
  2 15  1  0  0  0
  3  4  2  0  0  0
  3 16  1  0  0  0
  4  5  1  0  0  0
  4 10  1  0  0  0
  6  5  2  0  0  0
  5  7  1  0  0  0
  7  8  2  0  0  0
  7 22  1  0  0  0
  8  9  1  0  0  0
  8 13  1  0  0  0
 10  9  2  0  0  0
  9 17  1  0  0  0
 10 18  1  0  0  0
 11 12  1  0  0  0
 11 19  1  0  0  0
 22 11  2  0  0  0
 13 12  2  0  0  0
 12 20  1  0  0  0
 13 21  1  0  0  0
M  END
