1H-Indene
 OpenBabel01030815093D

 17 18  0  0  0  0  0  0  0  0999 V2000
    2.2904   -0.1904   -0.0031 C   0  0  0  0  0
    1.8041   -1.4945   -0.0205 C   0  0  0  0  0
    0.4326   -1.7509   -0.0235 C   0  0  0  0  0
   -0.4334   -0.6696   -0.0088 C   0  0  0  0  0
    1.4215    0.9026    0.0118 C   0  0  0  0  0
    0.0613    0.6553    0.0088 C   0  0  0  0  0
   -1.8961   -0.6138   -0.0076 C   0  0  0  0  0
   -1.1000    1.6048    0.0217 C   0  0  0  0  0
   -2.2879    0.6783    0.0098 C   0  0  0  0  0
    3.3715   -0.0172   -0.0011 H   0  0  0  0  0
    2.5080   -2.3332   -0.0319 H   0  0  0  0  0
    0.0500   -2.7757   -0.0372 H   0  0  0  0  0
    1.8076    1.9261    0.0254 H   0  0  0  0  0
   -2.5270   -1.5008   -0.0194 H   0  0  0  0  0
   -1.0972    2.2731   -0.8586 H   0  0  0  0  0
   -1.0967    2.2501    0.9190 H   0  0  0  0  0
   -3.3086    1.0559    0.0151 H   0  0  0  0  0
  1  2  2  0  0  0
  1  5  1  0  0  0
  1 10  1  0  0  0
  2  3  1  0  0  0
  2 11  1  0  0  0
  3  4  2  0  0  0
  3 12  1  0  0  0
  6  4  1  0  0  0
  4  7  1  0  0  0
  5  6  2  0  0  0
  5 13  1  0  0  0
  6  8  1  0  0  0
  9  7  2  0  0  0
  7 14  1  0  0  0
  8  9  1  0  0  0
  8 15  1  0  0  0
  8 16  1  0  0  0
  9 17  1  0  0  0
M  END
