1H-Indole
 OpenBabel01030815093D

 16 17  0  0  0  0  0  0  0  0999 V2000
    2.2006   -0.0517    0.0199 C   0  0  0  0  0
    1.7129   -1.3738    0.0753 C   0  0  0  0  0
    0.3608   -1.6439    0.0767 C   0  0  0  0  0
   -0.5338   -0.5661    0.0212 C   0  0  0  0  0
    1.3481    1.0300   -0.0355 C   0  0  0  0  0
   -0.0297    0.7622   -0.0344 C   0  0  0  0  0
   -1.9676   -0.4868    0.0062 C   0  0  0  0  0
   -2.3165    0.8462   -0.0565 C   0  0  0  0  0
    3.2834    0.1111    0.0212 H   0  0  0  0  0
    2.4325   -2.1978    0.1180 H   0  0  0  0  0
   -0.0188   -2.6690    0.1196 H   0  0  0  0  0
    1.7253    2.0560   -0.0785 H   0  0  0  0  0
   -2.6436   -1.3371    0.0389 H   0  0  0  0  0
   -3.3116    1.2900   -0.0843 H   0  0  0  0  0
   -1.1411    1.6232   -0.0819 N   0  0  0  0  0
   -1.1010    2.6076   -0.1259 H   0  0  0  0  0
  1  2  2  0  0  0
  1  5  1  0  0  0
  1  9  1  0  0  0
  2  3  1  0  0  0
  2 10  1  0  0  0
  3  4  2  0  0  0
  3 11  1  0  0  0
  6  4  1  0  0  0
  4  7  1  0  0  0
  5  6  2  0  0  0
  5 12  1  0  0  0
  6 15  1  0  0  0
  8  7  2  0  0  0
  7 13  1  0  0  0
  8 14  1  0  0  0
 15  8  1  0  0  0
 15 16  1  0  0  0
M  END
