4H-Chromene
 OpenBabel01030815093D

 18 19  0  0  0  0  0  0  0  0999 V2000
    2.4640    0.7519    0.0745 C   0  0  0  0  0
    2.3844   -0.6379    0.0388 C   0  0  0  0  0
    1.1472   -1.2690   -0.0048 C   0  0  0  0  0
   -0.0278   -0.5182   -0.0133 C   0  0  0  0  0
    1.3095    1.5237    0.0671 C   0  0  0  0  0
    0.0675    0.8792    0.0231 C   0  0  0  0  0
   -2.4763   -0.2113   -0.0615 C   0  0  0  0  0
   -1.0386    1.7172    0.0184 O   0  0  0  0  0
   -1.3595   -1.1898   -0.0603 C   0  0  0  0  0
    3.4427    1.2416    0.1088 H   0  0  0  0  0
    3.3007   -1.2368    0.0450 H   0  0  0  0  0
    1.0861   -2.3625   -0.0329 H   0  0  0  0  0
    1.3689    2.6174    0.0952 H   0  0  0  0  0
   -2.2657    1.1088   -0.0243 C   0  0  0  0  0
   -3.4937   -0.6109   -0.0943 H   0  0  0  0  0
   -1.4653   -1.8738    0.8064 H   0  0  0  0  0
   -1.4249   -1.8295   -0.9640 H   0  0  0  0  0
   -3.0192    1.8999   -0.0220 H   0  0  0  0  0
  1  2  2  0  0  0
  1  5  1  0  0  0
  1 10  1  0  0  0
  2  3  1  0  0  0
  2 11  1  0  0  0
  3  4  2  0  0  0
  3 12  1  0  0  0
  6  4  1  0  0  0
  4  9  1  0  0  0
  5  6  2  0  0  0
  5 13  1  0  0  0
  6  8  1  0  0  0
 14  7  2  0  0  0
  9  7  1  0  0  0
  7 15  1  0  0  0
  8 14  1  0  0  0
  9 16  1  0  0  0
  9 17  1  0  0  0
 14 18  1  0  0  0
M  END
