7H-Purine
 OpenBabel01030815093D

 13 14  0  0  0  0  0  0  0  0999 V2000
    2.2865    0.3255   -0.1157 N   0  0  0  0  0
    2.0055   -1.0183    0.0550 C   0  0  0  0  0
    0.7686   -1.5276    0.1576 N   0  0  0  0  0
   -0.2476   -0.6046    0.0810 C   0  0  0  0  0
    1.3084    1.2364   -0.1924 C   0  0  0  0  0
   -0.0231    0.7856   -0.0937 C   0  0  0  0  0
   -1.6387   -0.7786    0.1486 N   0  0  0  0  0
   -1.2728    1.4331   -0.1297 N   0  0  0  0  0
   -2.2226    0.4998    0.0145 C   0  0  0  0  0
    2.8591   -1.7072    0.1091 H   0  0  0  0  0
    1.5937    2.2859   -0.3279 H   0  0  0  0  0
   -3.2977    0.7035    0.0263 H   0  0  0  0  0
   -2.1194   -1.6333    0.2674 H   0  0  0  0  0
  1  2  2  0  0  0
  1  5  1  0  0  0
  2  3  1  0  0  0
  2 10  1  0  0  0
  3  4  2  0  0  0
  6  4  1  0  0  0
  4  7  1  0  0  0
  5  6  2  0  0  0
  5 11  1  0  0  0
  6  8  1  0  0  0
  9  7  1  0  0  0
  7 13  1  0  0  0
  8  9  2  0  0  0
  9 12  1  0  0  0
M  END
