9H-Fluorene
 OpenBabel01030815093D

 23 25  0  0  0  0  0  0  0  0999 V2000
    3.4278   -0.2477    0.0049 C   0  0  0  0  0
    2.8654   -1.5190   -0.0164 C   0  0  0  0  0
    1.4796   -1.6910   -0.0226 C   0  0  0  0  0
    2.6239    0.8953    0.0207 C   0  0  0  0  0
    1.2513    0.7334    0.0146 C   0  0  0  0  0
    0.6797   -0.5613   -0.0070 C   0  0  0  0  0
    0.1723    1.7799    0.0280 C   0  0  0  0  0
   -1.0874    0.9599    0.0123 C   0  0  0  0  0
   -0.7748   -0.4205   -0.0084 C   0  0  0  0  0
   -1.7764   -1.3758   -0.0259 C   0  0  0  0  0
   -3.1035   -0.9410   -0.0225 C   0  0  0  0  0
   -2.4034    1.3822    0.0156 C   0  0  0  0  0
   -3.4116    0.4146   -0.0020 C   0  0  0  0  0
    4.5173   -0.1377    0.0093 H   0  0  0  0  0
    3.5163   -2.3994   -0.0286 H   0  0  0  0  0
    1.0346   -2.6910   -0.0393 H   0  0  0  0  0
    3.0715    1.8936    0.0374 H   0  0  0  0  0
    0.2379    2.4477   -0.8506 H   0  0  0  0  0
    0.2335    2.4209    0.9266 H   0  0  0  0  0
   -1.5316   -2.4426   -0.0419 H   0  0  0  0  0
   -3.9114   -1.6799   -0.0361 H   0  0  0  0  0
   -2.6513    2.4478    0.0316 H   0  0  0  0  0
   -4.4598    0.7315    0.0003 H   0  0  0  0  0
  1  2  2  0  0  0
  1  4  1  0  0  0
  1 14  1  0  0  0
  2  3  1  0  0  0
  2 15  1  0  0  0
  6  3  2  0  0  0
  3 16  1  0  0  0
  4  5  2  0  0  0
  4 17  1  0  0  0
  5  7  1  0  0  0
  5  6  1  0  0  0
  6  9  1  0  0  0
  7  8  1  0  0  0
  7 18  1  0  0  0
  7 19  1  0  0  0
  8  9  2  0  0  0
  8 12  1  0  0  0
  9 10  1  0  0  0
 10 11  2  0  0  0
 10 20  1  0  0  0
 13 11  1  0  0  0
 11 21  1  0  0  0
 12 13  2  0  0  0
 12 22  1  0  0  0
 13 23  1  0  0  0
M  END
