2-Hydroxy-3-[(1R)-3-oxo-1-phenylbutyl]chromen-4-one
 OpenBabel01030815093D

 39 41  0  0  0  0  0  0  0  0999 V2000
   -0.7773    0.8735    1.0919 C   0  0  0  0  0
   -0.4439   -0.0959    0.1930 C   0  0  0  0  0
   -1.5253   -0.6828   -0.6214 C   0  0  0  0  0
   -2.8779   -0.1260   -0.3613 C   0  0  0  0  0
   -2.0102    1.3856    1.3538 O   0  0  0  0  0
   -3.0546    0.8707    0.6072 C   0  0  0  0  0
   -4.3143    1.4191    0.8854 C   0  0  0  0  0
   -5.4089    0.9549    0.1720 C   0  0  0  0  0
   -5.2539   -0.0358   -0.7984 C   0  0  0  0  0
   -4.0029   -0.5730   -1.0639 C   0  0  0  0  0
   -1.3389   -1.5630   -1.4488 O   0  0  0  0  0
   -0.0424    1.5768    1.9673 O   0  0  0  0  0
    0.9600   -0.6011    0.0047 C   0  0  0  0  0
   -4.4289    2.1975    1.6488 H   0  0  0  0  0
   -6.4026    1.3701    0.3726 H   0  0  0  0  0
   -6.1279   -0.3916   -1.3542 H   0  0  0  0  0
   -3.8845   -1.3527   -1.8270 H   0  0  0  0  0
    1.3482   -1.5173    1.1736 C   0  0  0  0  0
    2.3350   -2.5954    0.7580 C   0  0  0  0  0
    1.8892   -3.5150   -0.3440 C   0  0  0  0  0
    3.4121   -2.7116    1.3116 O   0  0  0  0  0
    1.9290    0.5288   -0.2414 C   0  0  0  0  0
    1.8384    1.2306   -1.4477 C   0  0  0  0  0
    2.7182    2.2698   -1.7230 C   0  0  0  0  0
    3.7013    2.6172   -0.8013 C   0  0  0  0  0
    3.8027    1.9189    0.3961 C   0  0  0  0  0
    2.9204    0.8810    0.6761 C   0  0  0  0  0
    0.8807    1.4039    1.7965 H   0  0  0  0  0
    0.4462   -2.0245    1.5690 H   0  0  0  0  0
    1.7617   -0.9175    2.0156 H   0  0  0  0  0
    2.7093   -4.1142   -0.7581 H   0  0  0  0  0
    1.4390   -2.9318   -1.1654 H   0  0  0  0  0
    1.1223   -4.2065    0.0286 H   0  0  0  0  0
    1.0686    0.9545   -2.1782 H   0  0  0  0  0
    2.6389    2.8136   -2.6702 H   0  0  0  0  0
    4.3957    3.4347   -1.0214 H   0  0  0  0  0
    4.5813    2.1800    1.1207 H   0  0  0  0  0
    3.0192    0.3085    1.6131 H   0  0  0  0  0
    0.9767   -1.2337   -0.9297 H   0  0  0  0  0
  1  2  2  0  0  0
  1  5  1  0  0  0
  1 12  1  0  0  0
  2  3  1  0  0  0
  2 13  1  0  0  0
  3  4  1  0  0  0
  3 11  2  0  0  0
  6  4  1  0  0  0
  4 10  2  0  0  0
  5  6  1  0  0  0
  6  7  2  0  0  0
  7  8  1  0  0  0
  7 14  1  0  0  0
  8  9  2  0  0  0
  8 15  1  0  0  0
 10  9  1  0  0  0
  9 16  1  0  0  0
 10 17  1  0  0  0
 12 28  1  0  0  0
 13 18  1  0  0  0
 13 22  1  0  0  0
 13 39  1  0  0  0
 18 19  1  0  0  0
 18 29  1  0  0  0
 18 30  1  0  0  0
 19 20  1  0  0  0
 19 21  2  0  0  0
 20 31  1  0  0  0
 20 32  1  0  0  0
 20 33  1  0  0  0
 22 23  1  0  0  0
 27 22  2  0  0  0
 23 24  2  0  0  0
 23 34  1  0  0  0
 24 25  1  0  0  0
 24 35  1  0  0  0
 25 26  2  0  0  0
 25 36  1  0  0  0
 26 27  1  0  0  0
 26 37  1  0  0  0
 27 38  1  0  0  0
M  END
