Tetralin
 OpenBabel01030815093D

 22 23  0  0  0  0  0  0  0  0999 V2000
    2.7714    0.7371    0.1371 C   0  0  0  0  0
    2.7983   -0.6270   -0.1371 C   0  0  0  0  0
    1.6091   -1.3289   -0.2757 C   0  0  0  0  0
    0.3795   -0.6778   -0.1412 C   0  0  0  0  0
    0.3524    0.6922    0.1407 C   0  0  0  0  0
    1.5553    1.3913    0.2755 C   0  0  0  0  0
   -0.9323    1.4307    0.3320 C   0  0  0  0  0
   -2.1349    0.6839   -0.2195 C   0  0  0  0  0
   -2.1057   -0.7680    0.2208 C   0  0  0  0  0
   -0.8751   -1.4663   -0.3329 C   0  0  0  0  0
    3.7080    1.2935    0.2445 H   0  0  0  0  0
    3.7561   -1.1461   -0.2443 H   0  0  0  0  0
    1.6306   -2.4027   -0.4933 H   0  0  0  0  0
    1.5342    2.4652    0.4934 H   0  0  0  0  0
   -0.8638    2.4331   -0.1356 H   0  0  0  0  0
   -3.0687    1.1720    0.1199 H   0  0  0  0  0
   -3.0197   -1.2929   -0.1172 H   0  0  0  0  0
   -0.7670   -2.4661    0.1327 H   0  0  0  0  0
   -1.0634    1.6118    1.4187 H   0  0  0  0  0
   -2.1488    0.7422   -1.3258 H   0  0  0  0  0
   -2.1154   -0.8269    1.3270 H   0  0  0  0  0
   -0.9998   -1.6503   -1.4198 H   0  0  0  0  0
  1  2  2  0  0  0
  1  6  1  0  0  0
  1 11  1  0  0  0
  2  3  1  0  0  0
  2 12  1  0  0  0
  3  4  2  0  0  0
  3 13  1  0  0  0
  4  5  1  0  0  0
  4 10  1  0  0  0
  5  7  1  0  0  0
  6  5  2  0  0  0
  6 14  1  0  0  0
  7  8  1  0  0  0
  7 15  1  0  0  0
  7 19  1  0  0  0
  8  9  1  0  0  0
  8 16  1  0  0  0
  8 20  1  0  0  0
  9 10  1  0  0  0
  9 17  1  0  0  0
  9 21  1  0  0  0
 10 18  1  0  0  0
 10 22  1  0  0  0
M  END
