Porphyrin
 OpenBabel01030815093D

 38 42  0  0  0  0  0  0  0  0999 V2000
    3.9073    1.9328   -0.0042 C   0  0  0  0  0
    4.3392    0.6450   -0.0031 C   0  0  0  0  0
    3.1514   -0.2232    0.0055 C   0  0  0  0  0
    2.4334    1.9081    0.0060 C   0  0  0  0  0
    2.0026    0.6436    0.0121 N   0  0  0  0  0
    1.6018    3.0784    0.0009 C   0  0  0  0  0
    0.2476    3.0823    0.0466 C   0  0  0  0  0
   -0.6133    1.9522    0.1991 N   0  0  0  0  0
   -1.9657    2.3872    0.0459 C   0  0  0  0  0
   -0.6299    4.2638   -0.0064 C   0  0  0  0  0
   -1.9212    3.8583   -0.0068 C   0  0  0  0  0
   -3.0744    1.6099   -0.0008 C   0  0  0  0  0
   -3.0875    0.1743    0.0037 C   0  0  0  0  0
   -2.0111   -0.6168    0.0105 N   0  0  0  0  0
   -3.9288   -1.9517   -0.0071 C   0  0  0  0  0
   -4.3108   -0.6482   -0.0079 C   0  0  0  0  0
   -0.2258   -3.0825    0.0086 C   0  0  0  0  0
    0.6205   -1.9749    0.0232 N   0  0  0  0  0
    1.9480   -2.4001    0.0097 C   0  0  0  0  0
    1.9308   -3.8185   -0.0090 C   0  0  0  0  0
    0.5990   -4.2366   -0.0096 C   0  0  0  0  0
    3.1176   -1.5749    0.0079 C   0  0  0  0  0
   -1.6570   -3.0743    0.0055 C   0  0  0  0  0
   -2.4579   -1.9848    0.0029 C   0  0  0  0  0
    4.5010    2.8442   -0.0096 H   0  0  0  0  0
    5.3626    0.2762   -0.0081 H   0  0  0  0  0
    2.1268    4.0403   -0.0542 H   0  0  0  0  0
   -0.3288    1.0466   -0.1007 H   0  0  0  0  0
   -0.2489    5.2834   -0.0400 H   0  0  0  0  0
   -2.8168    4.4769   -0.0408 H   0  0  0  0  0
   -4.0551    2.0988   -0.0563 H   0  0  0  0  0
   -4.5575   -2.8393   -0.0130 H   0  0  0  0  0
   -5.3190   -0.2401   -0.0140 H   0  0  0  0  0
    0.3232   -1.0282    0.0416 H   0  0  0  0  0
    2.8122   -4.4554   -0.0215 H   0  0  0  0  0
    0.2397   -5.2629   -0.0228 H   0  0  0  0  0
    4.0708   -2.1219    0.0047 H   0  0  0  0  0
   -2.1264   -4.0680    0.0016 H   0  0  0  0  0
  1  2  2  0  0  0
  1  4  1  0  0  0
  1 25  1  0  0  0
  2  3  1  0  0  0
  2 26  1  0  0  0
  5  3  1  0  0  0
  3 22  2  0  0  0
  4  5  2  0  0  0
  4  6  1  0  0  0
  6  7  2  0  0  0
  6 27  1  0  0  0
  7  8  1  0  0  0
  7 10  1  0  0  0
  8  9  1  0  0  0
  8 28  1  0  0  0
 11  9  1  0  0  0
  9 12  2  0  0  0
 10 11  2  0  0  0
 10 29  1  0  0  0
 11 30  1  0  0  0
 12 13  1  0  0  0
 12 31  1  0  0  0
 13 14  2  0  0  0
 16 13  1  0  0  0
 14 24  1  0  0  0
 15 16  2  0  0  0
 24 15  1  0  0  0
 15 32  1  0  0  0
 16 33  1  0  0  0
 17 18  1  0  0  0
 21 17  2  0  0  0
 23 17  1  0  0  0
 18 19  1  0  0  0
 18 34  1  0  0  0
 19 20  2  0  0  0
 22 19  1  0  0  0
 20 21  1  0  0  0
 20 35  1  0  0  0
 21 36  1  0  0  0
 22 37  1  0  0  0
 24 23  2  0  0  0
 23 38  1  0  0  0
M  END
