1-Bromopyrrolidine-2,5-dione
 OpenBabel01030815083D

 12 12  0  0  0  0  0  0  0  0999 V2000
    0.9264   -0.7627    0.0333 C   0  0  0  0  0
    0.8995    0.7606    0.2305 C   0  0  0  0  0
   -0.5446    1.1776    0.0187 C   0  0  0  0  0
   -1.2692    0.0384   -0.4731 N   0  0  0  0  0
   -0.5041   -1.1626   -0.2802 C   0  0  0  0  0
   -1.0994    2.2369    0.1894 O   0  0  0  0  0
   -1.0210   -2.2495   -0.3819 O   0  0  0  0  0
   -3.0860   -0.0227   -0.2315 Br  0  0  0  0  0
    1.2917   -1.2923    0.9328 H   0  0  0  0  0
    1.2468    1.0555    1.2383 H   0  0  0  0  0
    1.5992   -1.0639   -0.7914 H   0  0  0  0  0
    1.5607    1.2848   -0.4848 H   0  0  0  0  0
  5  1  1  0  0  0
  1  9  1  0  0  0
  2  1  1  0  0  0
  1 11  1  0  0  0
  2  3  1  0  0  0
  2 10  1  0  0  0
  2 12  1  0  0  0
  3  4  1  0  0  0
  3  6  2  0  0  0
  4  5  1  0  0  0
  4  8  1  0  0  0
  5  7  2  0  0  0
M  END
