Acetamide
 OpenBabel01030815083D

  9  8  0  0  0  0  0  0  0  0999 V2000
    1.1199   -0.1136   -0.0489 C   0  0  0  0  0
   -0.2215    0.5374    0.1539 C   0  0  0  0  0
   -1.3670   -0.2369   -0.0457 N   0  0  0  0  0
   -0.3958    1.7054    0.4839 O   0  0  0  0  0
    1.9381    0.5946    0.1371 H   0  0  0  0  0
    1.2319   -0.4846   -1.0764 H   0  0  0  0  0
    1.2580   -0.9637    0.6324 H   0  0  0  0  0
   -2.2721    0.1481    0.0762 H   0  0  0  0  0
   -1.2914   -1.1867   -0.3124 H   0  0  0  0  0
  1  2  1  0  0  0
  1  5  1  0  0  0
  1  6  1  0  0  0
  1  7  1  0  0  0
  2  3  1  0  0  0
  2  4  2  0  0  0
  3  8  1  0  0  0
  3  9  1  0  0  0
M  END
