N,N-Dimethylformamide
 OpenBabel01030815083D

 12 11  0  0  0  0  0  0  0  0999 V2000
   -0.3288    1.4336    0.5340 C   0  0  0  0  0
   -1.4852    1.8015    0.5727 O   0  0  0  0  0
   -0.0158    0.0536    0.3333 N   0  0  0  0  0
    1.3302   -0.2339   -0.2075 C   0  0  0  0  0
   -1.0661   -0.8673   -0.1482 C   0  0  0  0  0
    0.5213    2.1124    0.7171 H   0  0  0  0  0
    2.0732    0.4478    0.2272 H   0  0  0  0  0
    1.3731   -0.1422   -1.3029 H   0  0  0  0  0
    1.6125   -1.2608    0.0605 H   0  0  0  0  0
   -0.7427   -1.9021    0.0257 H   0  0  0  0  0
   -1.2748   -0.7436   -1.2208 H   0  0  0  0  0
   -1.9969   -0.6989    0.4088 H   0  0  0  0  0
  1  2  2  0  0  0
  1  3  1  0  0  0
  1  6  1  0  0  0
  3  4  1  0  0  0
  3  5  1  0  0  0
  4  7  1  0  0  0
  4  8  1  0  0  0
  4  9  1  0  0  0
  5 10  1  0  0  0
  5 11  1  0  0  0
  5 12  1  0  0  0
M  END
