4-Amino-3H-pyrimidin-2-one
 OpenBabel01030815093D

 13 13  0  0  0  0  0  0  0  0999 V2000
   -0.6697    0.9005   -0.0256 C   0  0  0  0  0
    0.5798    1.4424   -0.0028 C   0  0  0  0  0
    1.6991    0.6200    0.0089 N   0  0  0  0  0
    1.5538   -0.8190    0.0057 C   0  0  0  0  0
    0.2449   -1.3632   -0.0101 N   0  0  0  0  0
   -0.8017   -0.5374   -0.0430 C   0  0  0  0  0
    2.5732   -1.4869    0.0230 O   0  0  0  0  0
   -2.0629   -1.1384   -0.1894 N   0  0  0  0  0
   -2.1072   -2.1071    0.0322 H   0  0  0  0  0
   -2.8016   -0.6080    0.2111 H   0  0  0  0  0
    0.7462    2.5277    0.0067 H   0  0  0  0  0
   -1.5589    1.5386   -0.0416 H   0  0  0  0  0
    2.6051    1.0309    0.0250 H   0  0  0  0  0
 12  1  1  0  0  0
  1  6  1  0  0  0
  1  2  2  0  0  0
  2 11  1  0  0  0
  2  3  1  0  0  0
  4  3  1  0  0  0
  3 13  1  0  0  0
  7  4  2  0  0  0
  4  5  1  0  0  0
  6  5  2  0  0  0
  8  6  1  0  0  0
  8  9  1  0  0  0
  8 10  1  0  0  0
M  END
