5-Methyl-1H-pyrimidine-2,4-dione
 OpenBabel01030815093D

 15 15  0  0  0  0  0  0  0  0999 V2000
    0.6988    0.2394   -0.0422 C   0  0  0  0  0
    0.4993   -1.0997   -0.0014 C   0  0  0  0  0
   -0.7900   -1.6482    0.0802 N   0  0  0  0  0
   -1.9429   -0.8137    0.1243 C   0  0  0  0  0
   -1.7506    0.5900    0.0841 N   0  0  0  0  0
   -0.4433    1.1688    0.0002 C   0  0  0  0  0
   -3.0604   -1.3113    0.1949 O   0  0  0  0  0
    2.0609    0.8186   -0.1325 C   0  0  0  0  0
   -0.4080    2.3880   -0.0274 O   0  0  0  0  0
    1.3315   -1.8174   -0.0301 H   0  0  0  0  0
   -0.9045   -2.6360    0.1070 H   0  0  0  0  0
   -2.5585    1.1770    0.1157 H   0  0  0  0  0
    2.8413    0.0465   -0.1126 H   0  0  0  0  0
    2.2483    1.5073    0.7028 H   0  0  0  0  0
    2.1782    1.3907   -1.0631 H   0  0  0  0  0
  1  2  2  0  0  0
  6  1  1  0  0  0
  1  8  1  0  0  0
  2  3  1  0  0  0
  2 10  1  0  0  0
  3  4  1  0  0  0
  3 11  1  0  0  0
  4  5  1  0  0  0
  4  7  2  0  0  0
  5  6  1  0  0  0
  5 12  1  0  0  0
  6  9  2  0  0  0
  8 13  1  0  0  0
  8 14  1  0  0  0
  8 15  1  0  0  0
M  END
