(1R,2S)-1,2-Dimethylcyclopentane
 OpenBabel01030815083D

 21 21  0  0  0  0  0  0  0  0999 V2000
    0.1683    0.6021    2.4007 H   0  0  0  0  0
   -0.4218    0.7574    1.4785 C   0  0  0  0  0
   -0.9616    1.7107    1.6300 H   0  0  0  0  0
    0.4794    0.8469    0.2381 C   0  0  0  0  0
    0.6915    1.9130   -0.0100 H   0  0  0  0  0
    1.8074    0.1534    0.4804 C   0  0  0  0  0
    2.3304    0.5907    1.3415 H   0  0  0  0  0
    1.6757   -0.9181    0.6836 H   0  0  0  0  0
    2.4739    0.2454   -0.3878 H   0  0  0  0  0
   -0.3632    0.2133   -0.8864 C   0  0  0  0  0
   -1.0504    1.0050   -1.2738 H   0  0  0  0  0
    0.4254   -0.3281   -2.0587 C   0  0  0  0  0
    1.0675    0.4465   -2.4979 H   0  0  0  0  0
    1.0725   -1.1694   -1.7732 H   0  0  0  0  0
   -0.2472   -0.6896   -2.8474 H   0  0  0  0  0
   -1.2040   -0.8631   -0.1944 C   0  0  0  0  0
   -2.1629   -1.0283   -0.7175 H   0  0  0  0  0
   -0.6804   -1.8388   -0.2136 H   0  0  0  0  0
   -1.4072   -0.3864    1.2413 C   0  0  0  0  0
   -2.4474   -0.0509    1.4078 H   0  0  0  0  0
   -1.2461   -1.2118    1.9588 H   0  0  0  0  0
  1  2  1  0  0  0
  2  3  1  0  0  0
  2  4  1  0  0  0
  2 19  1  0  0  0
  4  5  1  0  0  0
  4  6  1  0  0  0
  4 10  1  0  0  0
  6  7  1  0  0  0
  6  8  1  0  0  0
  6  9  1  0  0  0
 10 11  1  0  0  0
 10 12  1  0  0  0
 10 16  1  0  0  0
 12 13  1  0  0  0
 12 14  1  0  0  0
 12 15  1  0  0  0
 16 17  1  0  0  0
 16 18  1  0  0  0
 16 19  1  0  0  0
 19 20  1  0  0  0
 19 21  1  0  0  0
M  END
