2-Methylbutane
 OpenBabel01030815083D

 17 16  0  0  0  0  0  0  0  0999 V2000
    2.4330   -0.1024    1.1134 H   0  0  0  0  0
    1.8913   -0.1504    0.1598 C   0  0  0  0  0
    2.1972    0.7201   -0.4360 H   0  0  0  0  0
    2.2361   -1.0483   -0.3695 H   0  0  0  0  0
    0.3870   -0.1753    0.3808 C   0  0  0  0  0
    0.1301   -1.0976    0.9578 H   0  0  0  0  0
   -0.0393    1.0365    1.1936 C   0  0  0  0  0
    0.4557    1.0533    2.1732 H   0  0  0  0  0
    0.2121    1.9756    0.6821 H   0  0  0  0  0
   -1.1235    1.0395    1.3709 H   0  0  0  0  0
   -0.3433   -0.2272   -0.9626 C   0  0  0  0  0
   -0.2688    0.7570   -1.4670 H   0  0  0  0  0
    0.1709   -0.9446   -1.6334 H   0  0  0  0  0
   -1.7941   -0.6287   -0.8184 C   0  0  0  0  0
   -1.8968   -1.6262   -0.3703 H   0  0  0  0  0
   -2.3504    0.0727   -0.1810 H   0  0  0  0  0
   -2.2972   -0.6540   -1.7934 H   0  0  0  0  0
  1  2  1  0  0  0
  2  3  1  0  0  0
  2  4  1  0  0  0
  2  5  1  0  0  0
  5  6  1  0  0  0
  5  7  1  0  0  0
  5 11  1  0  0  0
  7  8  1  0  0  0
  7  9  1  0  0  0
  7 10  1  0  0  0
 11 12  1  0  0  0
 11 13  1  0  0  0
 11 14  1  0  0  0
 14 15  1  0  0  0
 14 16  1  0  0  0
 14 17  1  0  0  0
M  END
