2-Methylpentane
 OpenBabel01030815083D

 20 19  0  0  0  0  0  0  0  0999 V2000
    2.9773   -0.2289    1.2389 H   0  0  0  0  0
    2.3624   -0.2171    0.3297 C   0  0  0  0  0
    2.6416    0.6769   -0.2443 H   0  0  0  0  0
    2.6420   -1.0929   -0.2702 H   0  0  0  0  0
    0.8816   -0.2251    0.6687 C   0  0  0  0  0
    0.6487   -1.1695    1.2196 H   0  0  0  0  0
    0.5339    0.9537    1.5641 C   0  0  0  0  0
    1.0001    0.8617    2.5525 H   0  0  0  0  0
    0.8646    1.9059    1.1287 H   0  0  0  0  0
   -0.5582    1.0175    1.7048 H   0  0  0  0  0
    0.0412   -0.1957   -0.6090 C   0  0  0  0  0
    0.1953    0.7680   -1.1358 H   0  0  0  0  0
    0.3938   -0.9787   -1.3094 H   0  0  0  0  0
   -1.4366   -0.3959   -0.3092 C   0  0  0  0  0
   -1.6044   -1.4113    0.1010 H   0  0  0  0  0
   -1.7373    0.3056    0.5025 H   0  0  0  0  0
   -2.2904   -0.1853   -1.5377 C   0  0  0  0  0
   -2.1855    0.8330   -1.9356 H   0  0  0  0  0
   -2.0164   -0.8792   -2.3435 H   0  0  0  0  0
   -3.3535   -0.3426   -1.3158 H   0  0  0  0  0
  1  2  1  0  0  0
  2  3  1  0  0  0
  2  4  1  0  0  0
  2  5  1  0  0  0
  5  6  1  0  0  0
  5  7  1  0  0  0
  5 11  1  0  0  0
  7  8  1  0  0  0
  7  9  1  0  0  0
  7 10  1  0  0  0
 11 12  1  0  0  0
 11 13  1  0  0  0
 11 14  1  0  0  0
 14 15  1  0  0  0
 14 16  1  0  0  0
 14 17  1  0  0  0
 17 18  1  0  0  0
 17 19  1  0  0  0
 17 20  1  0  0  0
M  END
