2,3-Dimethylbutane
 OpenBabel01030815083D

 20 19  0  0  0  0  0  0  0  0999 V2000
    2.4378   -0.3183    1.3410 H   0  0  0  0  0
    1.8813    0.0231    0.4595 C   0  0  0  0  0
    2.1541    1.0722    0.2818 H   0  0  0  0  0
    2.2330   -0.5557   -0.4102 H   0  0  0  0  0
    0.3816   -0.1434    0.6538 C   0  0  0  0  0
    0.1731   -1.2023    0.9449 H   0  0  0  0  0
   -0.0889    0.7725    1.7738 C   0  0  0  0  0
    0.3431    0.4774    2.7379 H   0  0  0  0  0
    0.1946    1.8177    1.5901 H   0  0  0  0  0
   -1.1867    0.7459    1.8703 H   0  0  0  0  0
   -0.3815    0.1434   -0.6539 C   0  0  0  0  0
   -0.1726    1.2021   -0.9454 H   0  0  0  0  0
    0.0887   -0.7729   -1.7736 C   0  0  0  0  0
    1.1865   -0.7462   -1.8704 H   0  0  0  0  0
   -0.1947   -1.8180   -1.5894 H   0  0  0  0  0
   -0.3435   -0.4784   -2.7378 H   0  0  0  0  0
   -1.8813   -0.0226   -0.4596 C   0  0  0  0  0
   -2.1541   -1.0716   -0.2814 H   0  0  0  0  0
   -2.2330    0.5568    0.4097 H   0  0  0  0  0
   -2.4375    0.3183   -1.3414 H   0  0  0  0  0
  1  2  1  0  0  0
  2  3  1  0  0  0
  2  4  1  0  0  0
  2  5  1  0  0  0
  5  6  1  0  0  0
  5  7  1  0  0  0
  5 11  1  0  0  0
  7  8  1  0  0  0
  7  9  1  0  0  0
  7 10  1  0  0  0
 11 12  1  0  0  0
 11 13  1  0  0  0
 11 17  1  0  0  0
 13 14  1  0  0  0
 13 15  1  0  0  0
 13 16  1  0  0  0
 17 18  1  0  0  0
 17 19  1  0  0  0
 17 20  1  0  0  0
M  END
