2,3,4-Trimethylpentane
 OpenBabel01030815083D

 26 25  0  0  0  0  0  0  0  0999 V2000
    2.0217    0.3066    1.0701 C   0  0  0  0  0
    0.5074    0.4484    1.1441 C   0  0  0  0  0
   -0.0961    0.4665   -0.2742 C   0  0  0  0  0
    0.1235   -0.9014   -0.9569 C   0  0  0  0  0
   -0.2539   -0.8304   -2.4266 C   0  0  0  0  0
    2.4566    0.1246    2.0607 H   0  0  0  0  0
    2.4941    1.2101    0.6620 H   0  0  0  0  0
    2.3047   -0.5358    0.4171 H   0  0  0  0  0
    0.1561    1.6930    1.9411 C   0  0  0  0  0
    0.0882   -0.4541    1.6679 H   0  0  0  0  0
    0.4543    1.2337   -0.8748 H   0  0  0  0  0
   -1.5697    0.8428   -0.2728 C   0  0  0  0  0
   -0.6407   -2.0155   -0.2598 C   0  0  0  0  0
    1.2206   -1.1329   -0.8738 H   0  0  0  0  0
   -0.2179   -1.8196   -2.8991 H   0  0  0  0  0
    0.4207   -0.1688   -2.9847 H   0  0  0  0  0
   -1.2770   -0.4343   -2.5454 H   0  0  0  0  0
   -0.9180    1.7450    2.1638 H   0  0  0  0  0
    0.4255    2.6095    1.3990 H   0  0  0  0  0
    0.6890    1.7087    2.9012 H   0  0  0  0  0
   -2.1388    0.2780    0.4780 H   0  0  0  0  0
   -2.0169    0.6281   -1.2585 H   0  0  0  0  0
   -1.7163    1.9105   -0.0652 H   0  0  0  0  0
   -0.3089   -3.0038   -0.6009 H   0  0  0  0  0
   -1.7215   -1.9490   -0.4437 H   0  0  0  0  0
   -0.4867   -1.9602    0.8311 H   0  0  0  0  0
  1  2  1  0  0  0
  1  6  1  0  0  0
  1  7  1  0  0  0
  1  8  1  0  0  0
  2  3  1  0  0  0
  2  9  1  0  0  0
  2 10  1  0  0  0
  3  4  1  0  0  0
  3 11  1  0  0  0
  3 12  1  0  0  0
  4  5  1  0  0  0
  4 13  1  0  0  0
  4 14  1  0  0  0
  5 15  1  0  0  0
  5 16  1  0  0  0
  5 17  1  0  0  0
  9 18  1  0  0  0
  9 19  1  0  0  0
  9 20  1  0  0  0
 12 21  1  0  0  0
 12 22  1  0  0  0
 12 23  1  0  0  0
 13 24  1  0  0  0
 13 25  1  0  0  0
 13 26  1  0  0  0
M  END
