3-Ethylpentane
 OpenBabel01030815083D

 23 22  0  0  0  0  0  0  0  0999 V2000
    2.6966   -0.2925    2.1609 H   0  0  0  0  0
    2.2231   -0.2249    1.1743 C   0  0  0  0  0
    2.7959    0.4990    0.5804 H   0  0  0  0  0
    2.3232   -1.2064    0.6800 H   0  0  0  0  0
    0.7658    0.1628    1.2799 C   0  0  0  0  0
    0.2540   -0.4752    2.0277 H   0  0  0  0  0
    0.6578    1.2072    1.6515 H   0  0  0  0  0
    0.0543    0.0521   -0.0695 C   0  0  0  0  0
    0.6476    0.6203   -0.8293 H   0  0  0  0  0
   -0.0268   -1.4089   -0.5147 C   0  0  0  0  0
    0.9801   -1.8703   -0.3978 H   0  0  0  0  0
   -0.6951   -1.9726    0.1663 H   0  0  0  0  0
   -0.5141   -1.5301   -1.9405 C   0  0  0  0  0
   -1.4459   -0.9548   -2.0767 H   0  0  0  0  0
    0.2189   -1.1377   -2.6572 H   0  0  0  0  0
   -0.7169   -2.5728   -2.2117 H   0  0  0  0  0
   -1.3440    0.6670    0.0094 C   0  0  0  0  0
   -1.8915    0.4202   -0.9285 H   0  0  0  0  0
   -1.9194    0.1882    0.8265 H   0  0  0  0  0
   -1.2833    2.1625    0.2215 C   0  0  0  0  0
   -0.6249    2.4019    1.0742 H   0  0  0  0  0
   -0.8810    2.6831   -0.6571 H   0  0  0  0  0
   -2.2744    2.5822    0.4302 H   0  0  0  0  0
  1  2  1  0  0  0
  2  3  1  0  0  0
  2  4  1  0  0  0
  2  5  1  0  0  0
  5  6  1  0  0  0
  5  7  1  0  0  0
  5  8  1  0  0  0
  8  9  1  0  0  0
  8 10  1  0  0  0
  8 17  1  0  0  0
 10 11  1  0  0  0
 10 12  1  0  0  0
 10 13  1  0  0  0
 13 14  1  0  0  0
 13 15  1  0  0  0
 13 16  1  0  0  0
 17 18  1  0  0  0
 17 19  1  0  0  0
 17 20  1  0  0  0
 20 21  1  0  0  0
 20 22  1  0  0  0
 20 23  1  0  0  0
M  END
