(3S)-3-Methylheptane
 OpenBabel01030815083D

 26 25  0  0  0  0  0  0  0  0999 V2000
    4.3145   -0.7388    2.1165 H   0  0  0  0  0
    3.7153   -0.3677    1.2754 C   0  0  0  0  0
    3.9772    0.6884    1.1266 H   0  0  0  0  0
    4.0371   -0.9121    0.3776 H   0  0  0  0  0
    2.2361   -0.5444    1.5344 C   0  0  0  0  0
    2.0093   -1.6136    1.7175 H   0  0  0  0  0
    1.9495   -0.0167    2.4658 H   0  0  0  0  0
    1.4023   -0.0309    0.3712 C   0  0  0  0  0
    1.6288    1.0390    0.1883 H   0  0  0  0  0
    1.6914   -0.5584   -0.5609 H   0  0  0  0  0
   -0.0842   -0.2116    0.6345 C   0  0  0  0  0
   -0.3094   -1.2802    0.8273 H   0  0  0  0  0
   -0.3576    0.3224    1.5677 H   0  0  0  0  0
   -0.9451    0.3011   -0.5207 C   0  0  0  0  0
   -0.5852    1.3202   -0.8082 H   0  0  0  0  0
   -0.8439   -0.6088   -1.7356 C   0  0  0  0  0
    0.1541   -0.5722   -2.1906 H   0  0  0  0  0
   -1.0526   -1.6562   -1.4796 H   0  0  0  0  0
   -1.5776   -0.3049   -2.5013 H   0  0  0  0  0
   -2.4058    0.4200   -0.0751 C   0  0  0  0  0
   -2.8086   -0.5883    0.1469 H   0  0  0  0  0
   -2.4660    0.9830    0.8775 H   0  0  0  0  0
   -3.2549    1.1000   -1.1266 C   0  0  0  0  0
   -2.9910    2.1596   -1.2395 H   0  0  0  0  0
   -3.1115    0.6215   -2.1103 H   0  0  0  0  0
   -4.3219    1.0494   -0.8788 H   0  0  0  0  0
  1  2  1  0  0  0
  2  3  1  0  0  0
  2  4  1  0  0  0
  2  5  1  0  0  0
  5  6  1  0  0  0
  5  7  1  0  0  0
  5  8  1  0  0  0
  8  9  1  0  0  0
  8 10  1  0  0  0
  8 11  1  0  0  0
 11 12  1  0  0  0
 11 13  1  0  0  0
 11 14  1  0  0  0
 14 15  1  0  0  0
 14 16  1  0  0  0
 14 20  1  0  0  0
 16 17  1  0  0  0
 16 18  1  0  0  0
 16 19  1  0  0  0
 20 21  1  0  0  0
 20 22  1  0  0  0
 20 23  1  0  0  0
 23 24  1  0  0  0
 23 25  1  0  0  0
 23 26  1  0  0  0
M  END
