Cyclodecane
 OpenBabel01030815083D

 30 30  0  0  0  0  0  0  0  0999 V2000
    1.5322   -0.7036    2.3327 H   0  0  0  0  0
    0.9959   -0.6885    1.3653 C   0  0  0  0  0
    1.2356    0.3021    0.9028 H   0  0  0  0  0
   -0.5066   -0.7766    1.6090 C   0  0  0  0  0
   -1.0106   -1.1376    0.6768 H   0  0  0  0  0
   -0.7252   -1.5320    2.3868 H   0  0  0  0  0
   -1.1200    0.5640    1.9899 C   0  0  0  0  0
   -2.1884    0.4202    2.2439 H   0  0  0  0  0
   -0.6401    0.9534    2.9091 H   0  0  0  0  0
   -0.9838    1.5907    0.8726 C   0  0  0  0  0
   -1.3804    2.5678    1.2040 H   0  0  0  0  0
    0.1083    1.7456    0.6854 H   0  0  0  0  0
   -1.6635    1.1469   -0.4200 C   0  0  0  0  0
   -1.8367    0.0419   -0.3900 H   0  0  0  0  0
   -2.6620    1.6118   -0.5130 H   0  0  0  0  0
   -0.8273    1.4499   -1.6569 C   0  0  0  0  0
   -1.3832    1.1395   -2.5631 H   0  0  0  0  0
   -0.6766    2.5429   -1.7539 H   0  0  0  0  0
    0.5272    0.7555   -1.6125 C   0  0  0  0  0
    1.1548    1.0875   -2.4607 H   0  0  0  0  0
    1.0588    1.0885   -0.6851 H   0  0  0  0  0
    0.4095   -0.7645   -1.6055 C   0  0  0  0  0
   -0.5030   -1.0597   -1.0285 H   0  0  0  0  0
    0.2419   -1.1303   -2.6360 H   0  0  0  0  0
    1.6427   -1.4283   -1.0021 C   0  0  0  0  0
    2.5245   -0.7668   -1.1251 H   0  0  0  0  0
    1.8851   -2.3436   -1.5776 H   0  0  0  0  0
    1.4934   -1.8153    0.4662 C   0  0  0  0  0
    0.8198   -2.6921    0.5535 H   0  0  0  0  0
    2.4777   -2.1691    0.8321 H   0  0  0  0  0
  1  2  1  0  0  0
  2  3  1  0  0  0
  2  4  1  0  0  0
  2 28  1  0  0  0
  4  5  1  0  0  0
  4  6  1  0  0  0
  4  7  1  0  0  0
  7  8  1  0  0  0
  7  9  1  0  0  0
  7 10  1  0  0  0
 10 11  1  0  0  0
 10 12  1  0  0  0
 10 13  1  0  0  0
 13 14  1  0  0  0
 13 15  1  0  0  0
 13 16  1  0  0  0
 16 17  1  0  0  0
 16 18  1  0  0  0
 16 19  1  0  0  0
 19 20  1  0  0  0
 19 21  1  0  0  0
 19 22  1  0  0  0
 22 23  1  0  0  0
 22 24  1  0  0  0
 22 25  1  0  0  0
 25 26  1  0  0  0
 25 27  1  0  0  0
 25 28  1  0  0  0
 28 29  1  0  0  0
 28 30  1  0  0  0
M  END
