Decane
 OpenBabel01030815083D

 32 31  0  0  0  0  0  0  0  0999 V2000
    5.9038    0.3672    2.8182 H   0  0  0  0  0
    5.3265    0.3306    1.8856 C   0  0  0  0  0
    5.5760    1.2315    1.3094 H   0  0  0  0  0
    5.6862   -0.5331    1.3106 H   0  0  0  0  0
    3.8428    0.2379    2.1614 C   0  0  0  0  0
    3.6272   -0.6603    2.7737 H   0  0  0  0  0
    3.5174    1.1008    2.7760 H   0  0  0  0  0
    3.0387    0.1894    0.8721 C   0  0  0  0  0
    3.2539    1.0878    0.2591 H   0  0  0  0  0
    3.3642   -0.6737    0.2569 H   0  0  0  0  0
    1.5475    0.0955    1.1513 C   0  0  0  0  0
    1.3330   -0.8037    1.7635 H   0  0  0  0  0
    1.2226    0.9582    1.7673 H   0  0  0  0  0
    0.7455    0.0479   -0.1391 C   0  0  0  0  0
    0.9597    0.9471   -0.7514 H   0  0  0  0  0
    1.0708   -0.8146   -0.7553 H   0  0  0  0  0
   -0.7458   -0.0470    0.1399 C   0  0  0  0  0
   -0.9599   -0.9466    0.7516 H   0  0  0  0  0
   -1.0713    0.8152    0.7564 H   0  0  0  0  0
   -1.5477   -0.0944   -1.1506 C   0  0  0  0  0
   -1.3337    0.8051   -1.7626 H   0  0  0  0  0
   -1.2221   -0.9566   -1.7671 H   0  0  0  0  0
   -3.0388   -0.1898   -0.8718 C   0  0  0  0  0
   -3.2534   -1.0896   -0.2606 H   0  0  0  0  0
   -3.3653    0.6719   -0.2553 H   0  0  0  0  0
   -3.8425   -0.2370   -2.1615 C   0  0  0  0  0
   -3.6276    0.6622   -2.7725 H   0  0  0  0  0
   -3.5162   -1.0987   -2.7773 H   0  0  0  0  0
   -5.3262   -0.3318   -1.8864 C   0  0  0  0  0
   -5.5752   -1.2357   -1.3145 H   0  0  0  0  0
   -5.6869    0.5290   -1.3075 H   0  0  0  0  0
   -5.9033   -0.3647   -2.8192 H   0  0  0  0  0
  1  2  1  0  0  0
  2  3  1  0  0  0
  2  4  1  0  0  0
  2  5  1  0  0  0
  5  6  1  0  0  0
  5  7  1  0  0  0
  5  8  1  0  0  0
  8  9  1  0  0  0
  8 10  1  0  0  0
  8 11  1  0  0  0
 11 12  1  0  0  0
 11 13  1  0  0  0
 11 14  1  0  0  0
 14 15  1  0  0  0
 14 16  1  0  0  0
 14 17  1  0  0  0
 17 18  1  0  0  0
 17 19  1  0  0  0
 17 20  1  0  0  0
 20 21  1  0  0  0
 20 22  1  0  0  0
 20 23  1  0  0  0
 23 24  1  0  0  0
 23 25  1  0  0  0
 23 26  1  0  0  0
 26 27  1  0  0  0
 26 28  1  0  0  0
 26 29  1  0  0  0
 29 30  1  0  0  0
 29 31  1  0  0  0
 29 32  1  0  0  0
M  END
