Dodecane
 OpenBabel01030815083D

 38 37  0  0  0  0  0  0  0  0999 V2000
    6.4632   -0.0894    4.3779 H   0  0  0  0  0
    6.0361   -0.0952    3.3671 C   0  0  0  0  0
    6.4471    0.7714    2.8321 H   0  0  0  0  0
    6.4059   -0.9961    2.8596 H   0  0  0  0  0
    4.5251   -0.0595    3.4091 C   0  0  0  0  0
    4.1420   -0.9258    3.9845 H   0  0  0  0  0
    4.1828    0.8382    3.9614 H   0  0  0  0  0
    3.9290   -0.0642    2.0105 C   0  0  0  0  0
    4.3118    0.8022    1.4342 H   0  0  0  0  0
    4.2713   -0.9621    1.4576 H   0  0  0  0  0
    2.4100   -0.0289    2.0548 C   0  0  0  0  0
    2.0280   -0.8960    2.6306 H   0  0  0  0  0
    2.0681    0.8687    2.6086 H   0  0  0  0  0
    1.8160   -0.0329    0.6556 C   0  0  0  0  0
    2.1981    0.8339    0.0794 H   0  0  0  0  0
    2.1577   -0.9307    0.1019 H   0  0  0  0  0
    0.2969    0.0023    0.6999 C   0  0  0  0  0
   -0.0852   -0.8646    1.2758 H   0  0  0  0  0
   -0.0451    0.9001    1.2535 H   0  0  0  0  0
   -0.2971   -0.0020   -0.6994 C   0  0  0  0  0
    0.0852    0.8646   -1.2757 H   0  0  0  0  0
    0.0446   -0.9000   -1.2527 H   0  0  0  0  0
   -1.8162    0.0334   -0.6552 C   0  0  0  0  0
   -2.1984   -0.8336   -0.0793 H   0  0  0  0  0
   -2.1581    0.9311   -0.1015 H   0  0  0  0  0
   -2.4101    0.0291   -2.0544 C   0  0  0  0  0
   -2.0281    0.8961   -2.6305 H   0  0  0  0  0
   -2.0680   -0.8686   -2.6080 H   0  0  0  0  0
   -3.9290    0.0638   -2.0104 C   0  0  0  0  0
   -4.3116   -0.8041   -1.4362 H   0  0  0  0  0
   -4.2721    0.9604   -1.4558 H   0  0  0  0  0
   -4.5247    0.0614   -3.4092 C   0  0  0  0  0
   -4.1429    0.9294   -3.9828 H   0  0  0  0  0
   -4.1808   -0.8346   -3.9635 H   0  0  0  0  0
   -6.0358    0.0941   -3.3677 C   0  0  0  0  0
   -6.4454   -0.7770   -2.8392 H   0  0  0  0  0
   -6.4077    0.9907   -2.8541 H   0  0  0  0  0
   -6.4623    0.0946   -4.3788 H   0  0  0  0  0
  1  2  1  0  0  0
  2  3  1  0  0  0
  2  4  1  0  0  0
  2  5  1  0  0  0
  5  6  1  0  0  0
  5  7  1  0  0  0
  5  8  1  0  0  0
  8  9  1  0  0  0
  8 10  1  0  0  0
  8 11  1  0  0  0
 11 12  1  0  0  0
 11 13  1  0  0  0
 11 14  1  0  0  0
 14 15  1  0  0  0
 14 16  1  0  0  0
 14 17  1  0  0  0
 17 18  1  0  0  0
 17 19  1  0  0  0
 17 20  1  0  0  0
 20 21  1  0  0  0
 20 22  1  0  0  0
 20 23  1  0  0  0
 23 24  1  0  0  0
 23 25  1  0  0  0
 23 26  1  0  0  0
 26 27  1  0  0  0
 26 28  1  0  0  0
 26 29  1  0  0  0
 29 30  1  0  0  0
 29 31  1  0  0  0
 29 32  1  0  0  0
 32 33  1  0  0  0
 32 34  1  0  0  0
 32 35  1  0  0  0
 35 36  1  0  0  0
 35 37  1  0  0  0
 35 38  1  0  0  0
M  END
