Eicosane
 OpenBabel01030815083D

 62 61  0  0  0  0  0  0  0  0999 V2000
   11.7461    0.0751    5.1520 H   0  0  0  0  0
   11.1512   -0.0042    4.2333 C   0  0  0  0  0
   11.4824    0.7957    3.5576 H   0  0  0  0  0
   11.4089   -0.9596    3.7569 H   0  0  0  0  0
    9.6712    0.0909    4.5272 C   0  0  0  0  0
    9.3745   -0.7063    5.2376 H   0  0  0  0  0
    9.4484    1.0460    5.0435 H   0  0  0  0  0
    8.8431   -0.0150    3.2566 C   0  0  0  0  0
    9.1392    0.7825    2.5456 H   0  0  0  0  0
    9.0659   -0.9702    2.7398 H   0  0  0  0  0
    7.3556    0.0802    3.5545 C   0  0  0  0  0
    7.0600   -0.7186    4.2644 H   0  0  0  0  0
    7.1336    1.0348    4.0729 H   0  0  0  0  0
    6.5292   -0.0242    2.2829 C   0  0  0  0  0
    6.8245    0.7745    1.5728 H   0  0  0  0  0
    6.7514   -0.9787    1.7645 H   0  0  0  0  0
    5.0417    0.0704    2.5813 C   0  0  0  0  0
    4.7465   -0.7289    3.2908 H   0  0  0  0  0
    4.8196    1.0246    3.1005 H   0  0  0  0  0
    4.2149   -0.0334    1.3100 C   0  0  0  0  0
    4.5098    0.7658    0.6002 H   0  0  0  0  0
    4.4370   -0.9876    0.7909 H   0  0  0  0  0
    2.7275    0.0608    1.6090 C   0  0  0  0  0
    2.4327   -0.7389    2.3182 H   0  0  0  0  0
    2.5054    1.0147    2.1287 H   0  0  0  0  0
    1.9004   -0.0424    0.3378 C   0  0  0  0  0
    2.1950    0.7571   -0.3716 H   0  0  0  0  0
    2.1224   -0.9964   -0.1817 H   0  0  0  0  0
    0.4129    0.0515    0.6371 C   0  0  0  0  0
    0.1182   -0.7486    1.3458 H   0  0  0  0  0
    0.1908    1.0051    1.1573 H   0  0  0  0  0
   -0.4140   -0.0512   -0.6342 C   0  0  0  0  0
   -0.1195    0.7488   -1.3432 H   0  0  0  0  0
   -0.1917   -1.0048   -1.1543 H   0  0  0  0  0
   -1.9016    0.0422   -0.3351 C   0  0  0  0  0
   -2.1962   -0.7584    0.3731 H   0  0  0  0  0
   -2.1241    0.9954    0.1855 H   0  0  0  0  0
   -2.7282   -0.0600   -1.6067 C   0  0  0  0  0
   -2.4336    0.7404   -2.3152 H   0  0  0  0  0
   -2.5054   -1.0133   -2.1273 H   0  0  0  0  0
   -4.2158    0.0327   -1.3082 C   0  0  0  0  0
   -4.5105   -0.7683   -0.6005 H   0  0  0  0  0
   -4.4389    0.9857   -0.7872 H   0  0  0  0  0
   -5.0418   -0.0692   -2.5802 C   0  0  0  0  0
   -4.7471    0.7317   -3.2882 H   0  0  0  0  0
   -4.8184   -1.0222   -3.1011 H   0  0  0  0  0
   -6.5296    0.0229   -2.2825 C   0  0  0  0  0
   -6.8245   -0.7787   -1.5755 H   0  0  0  0  0
   -6.7533    0.9754   -1.7610 H   0  0  0  0  0
   -7.3548   -0.0784   -3.5551 C   0  0  0  0  0
   -7.0603    0.7233   -4.2622 H   0  0  0  0  0
   -7.1307   -1.0308   -4.0767 H   0  0  0  0  0
   -8.8428    0.0126   -3.2581 C   0  0  0  0  0
   -9.1384   -0.7901   -2.5528 H   0  0  0  0  0
   -9.0677    0.9641   -2.7353 H   0  0  0  0  0
   -9.6693   -0.0866   -4.5303 C   0  0  0  0  0
   -9.3739    0.7160   -5.2351 H   0  0  0  0  0
   -9.4438   -1.0376   -5.0527 H   0  0  0  0  0
  -11.1499    0.0027   -4.2371 C   0  0  0  0  0
  -11.4806   -0.8059   -3.5716 H   0  0  0  0  0
  -11.4100    0.9519   -3.7499 H   0  0  0  0  0
  -11.7434   -0.0669   -5.1576 H   0  0  0  0  0
  1  2  1  0  0  0
  2  3  1  0  0  0
  2  4  1  0  0  0
  2  5  1  0  0  0
  5  6  1  0  0  0
  5  7  1  0  0  0
  5  8  1  0  0  0
  8  9  1  0  0  0
  8 10  1  0  0  0
  8 11  1  0  0  0
 11 12  1  0  0  0
 11 13  1  0  0  0
 11 14  1  0  0  0
 14 15  1  0  0  0
 14 16  1  0  0  0
 14 17  1  0  0  0
 17 18  1  0  0  0
 17 19  1  0  0  0
 17 20  1  0  0  0
 20 21  1  0  0  0
 20 22  1  0  0  0
 20 23  1  0  0  0
 23 24  1  0  0  0
 23 25  1  0  0  0
 23 26  1  0  0  0
 26 27  1  0  0  0
 26 28  1  0  0  0
 26 29  1  0  0  0
 29 30  1  0  0  0
 29 31  1  0  0  0
 29 32  1  0  0  0
 32 33  1  0  0  0
 32 34  1  0  0  0
 32 35  1  0  0  0
 35 36  1  0  0  0
 35 37  1  0  0  0
 35 38  1  0  0  0
 38 39  1  0  0  0
 38 40  1  0  0  0
 38 41  1  0  0  0
 41 42  1  0  0  0
 41 43  1  0  0  0
 41 44  1  0  0  0
 44 45  1  0  0  0
 44 46  1  0  0  0
 44 47  1  0  0  0
 47 48  1  0  0  0
 47 49  1  0  0  0
 47 50  1  0  0  0
 50 51  1  0  0  0
 50 52  1  0  0  0
 50 53  1  0  0  0
 53 54  1  0  0  0
 53 55  1  0  0  0
 53 56  1  0  0  0
 56 57  1  0  0  0
 56 58  1  0  0  0
 56 59  1  0  0  0
 59 60  1  0  0  0
 59 61  1  0  0  0
 59 62  1  0  0  0
M  END
