Hexadecane
 OpenBabel01030815083D

 50 49  0  0  0  0  0  0  0  0999 V2000
    9.1795   -0.6077    4.6689 H   0  0  0  0  0
    8.6383   -0.5381    3.7168 C   0  0  0  0  0
    8.9996    0.3603    3.1988 H   0  0  0  0  0
    8.9315   -1.4042    3.1086 H   0  0  0  0  0
    7.1432   -0.4918    3.9369 C   0  0  0  0  0
    6.8143   -1.3929    4.4919 H   0  0  0  0  0
    6.8825    0.3678    4.5861 H   0  0  0  0  0
    6.3894   -0.3923    2.6204 C   0  0  0  0  0
    6.7183    0.5088    2.0644 H   0  0  0  0  0
    6.6494   -1.2524    1.9709 H   0  0  0  0  0
    4.8866   -0.3454    2.8438 C   0  0  0  0  0
    4.5583   -1.2471    3.3992 H   0  0  0  0  0
    4.6272    0.5143    3.4942 H   0  0  0  0  0
    4.1346   -0.2450    1.5266 C   0  0  0  0  0
    4.4634    0.6561    0.9705 H   0  0  0  0  0
    4.3933   -1.1052    0.8766 H   0  0  0  0  0
    2.6318   -0.1973    1.7504 C   0  0  0  0  0
    2.3032   -1.0987    2.3063 H   0  0  0  0  0
    2.3730    0.6628    2.4005 H   0  0  0  0  0
    1.8794   -0.0973    0.4334 C   0  0  0  0  0
    2.2081    0.8036   -0.1230 H   0  0  0  0  0
    2.1377   -0.9577   -0.2164 H   0  0  0  0  0
    0.3767   -0.0492    0.6579 C   0  0  0  0  0
    0.0482   -0.9502    1.2143 H   0  0  0  0  0
    0.1183    0.8113    1.3077 H   0  0  0  0  0
   -0.3761    0.0504   -0.6589 C   0  0  0  0  0
   -0.0475    0.9511   -1.2158 H   0  0  0  0  0
   -0.1179   -0.8103   -1.3085 H   0  0  0  0  0
   -1.8788    0.0985   -0.4343 C   0  0  0  0  0
   -2.2073   -0.8023    0.1225 H   0  0  0  0  0
   -2.1372    0.9592    0.2152 H   0  0  0  0  0
   -2.6315    0.1976   -1.7512 C   0  0  0  0  0
   -2.3030    1.0982   -2.3083 H   0  0  0  0  0
   -2.3731   -0.6633   -2.4004 H   0  0  0  0  0
   -4.1343    0.2455   -1.5268 C   0  0  0  0  0
   -4.4628   -0.6553   -0.9701 H   0  0  0  0  0
   -4.3929    1.1062   -0.8775 H   0  0  0  0  0
   -4.8868    0.3444   -2.8439 C   0  0  0  0  0
   -4.5585    1.2452   -3.4008 H   0  0  0  0  0
   -4.6280   -0.5162   -3.4932 H   0  0  0  0  0
   -6.3894    0.3917   -2.6199 C   0  0  0  0  0
   -6.7184   -0.5095   -2.0641 H   0  0  0  0  0
   -6.6491    1.2517   -1.9701 H   0  0  0  0  0
   -7.1438    0.4915   -3.9360 C   0  0  0  0  0
   -6.8150    1.3926   -4.4913 H   0  0  0  0  0
   -6.8836   -0.3680   -4.5854 H   0  0  0  0  0
   -8.6388    0.5378   -3.7154 C   0  0  0  0  0
   -9.0004   -0.3626   -3.2011 H   0  0  0  0  0
   -8.9316    1.4015   -3.1036 H   0  0  0  0  0
   -9.1802    0.6115   -4.6671 H   0  0  0  0  0
  1  2  1  0  0  0
  2  3  1  0  0  0
  2  4  1  0  0  0
  2  5  1  0  0  0
  5  6  1  0  0  0
  5  7  1  0  0  0
  5  8  1  0  0  0
  8  9  1  0  0  0
  8 10  1  0  0  0
  8 11  1  0  0  0
 11 12  1  0  0  0
 11 13  1  0  0  0
 11 14  1  0  0  0
 14 15  1  0  0  0
 14 16  1  0  0  0
 14 17  1  0  0  0
 17 18  1  0  0  0
 17 19  1  0  0  0
 17 20  1  0  0  0
 20 21  1  0  0  0
 20 22  1  0  0  0
 20 23  1  0  0  0
 23 24  1  0  0  0
 23 25  1  0  0  0
 23 26  1  0  0  0
 26 27  1  0  0  0
 26 28  1  0  0  0
 26 29  1  0  0  0
 29 30  1  0  0  0
 29 31  1  0  0  0
 29 32  1  0  0  0
 32 33  1  0  0  0
 32 34  1  0  0  0
 32 35  1  0  0  0
 35 36  1  0  0  0
 35 37  1  0  0  0
 35 38  1  0  0  0
 38 39  1  0  0  0
 38 40  1  0  0  0
 38 41  1  0  0  0
 41 42  1  0  0  0
 41 43  1  0  0  0
 41 44  1  0  0  0
 44 45  1  0  0  0
 44 46  1  0  0  0
 44 47  1  0  0  0
 47 48  1  0  0  0
 47 49  1  0  0  0
 47 50  1  0  0  0
M  END
