Methylcyclopentane
 OpenBabel01030815083D

 18 18  0  0  0  0  0  0  0  0999 V2000
    0.4981    0.7116    2.4077 H   0  0  0  0  0
   -0.1095    0.8650    1.4973 C   0  0  0  0  0
   -0.6304    1.8284    1.6507 H   0  0  0  0  0
    0.7688    0.9137    0.2508 C   0  0  0  0  0
    0.9761    1.9508   -0.0684 H   0  0  0  0  0
    1.7590    0.4601    0.4504 H   0  0  0  0  0
    0.0237    0.1291   -0.8326 C   0  0  0  0  0
   -0.6413    0.8280   -1.3942 H   0  0  0  0  0
    0.9625   -0.5369   -1.8163 C   0  0  0  0  0
    1.5795    0.2051   -2.3393 H   0  0  0  0  0
    1.6458   -1.2410   -1.3215 H   0  0  0  0  0
    0.4054   -1.1006   -2.5756 H   0  0  0  0  0
   -0.8425   -0.8796   -0.0730 C   0  0  0  0  0
   -1.7767   -1.1043   -0.6183 H   0  0  0  0  0
   -0.3167   -1.8488    0.0278 H   0  0  0  0  0
   -1.1158   -0.2675    1.2977 C   0  0  0  0  0
   -2.1520    0.1140    1.3605 H   0  0  0  0  0
   -1.0340   -1.0272    2.0963 H   0  0  0  0  0
  1  2  1  0  0  0
  2  3  1  0  0  0
  2  4  1  0  0  0
  2 16  1  0  0  0
  4  5  1  0  0  0
  4  6  1  0  0  0
  4  7  1  0  0  0
  7  8  1  0  0  0
  7  9  1  0  0  0
  7 13  1  0  0  0
  9 10  1  0  0  0
  9 11  1  0  0  0
  9 12  1  0  0  0
 13 14  1  0  0  0
 13 15  1  0  0  0
 13 16  1  0  0  0
 16 17  1  0  0  0
 16 18  1  0  0  0
M  END
