Octane
 OpenBabel01030815083D

 26 25  0  0  0  0  0  0  0  0999 V2000
    4.8022    0.0235    2.2370 H   0  0  0  0  0
    4.2088   -0.0201    1.3150 C   0  0  0  0  0
    4.5255    0.8186    0.6807 H   0  0  0  0  0
    4.4833   -0.9456    0.7914 H   0  0  0  0  0
    2.7273    0.0339    1.6122 C   0  0  0  0  0
    2.4452   -0.8022    2.2827 H   0  0  0  0  0
    2.4873    0.9585    2.1741 H   0  0  0  0  0
    1.9011   -0.0252    0.3373 C   0  0  0  0  0
    2.1834    0.8106   -0.3343 H   0  0  0  0  0
    2.1405   -0.9504   -0.2247 H   0  0  0  0  0
    0.4121    0.0297    0.6379 C   0  0  0  0  0
    0.1305   -0.8064    1.3094 H   0  0  0  0  0
    0.1732    0.9550    1.2002 H   0  0  0  0  0
   -0.4121   -0.0296   -0.6380 C   0  0  0  0  0
   -0.1305    0.8063   -1.3098 H   0  0  0  0  0
   -0.1732   -0.9550   -1.2001 H   0  0  0  0  0
   -1.9010    0.0250   -0.3373 C   0  0  0  0  0
   -2.1832   -0.8112    0.3338 H   0  0  0  0  0
   -2.1407    0.9500    0.2251 H   0  0  0  0  0
   -2.7273   -0.0339   -1.6121 C   0  0  0  0  0
   -2.4449    0.8018   -2.2831 H   0  0  0  0  0
   -2.4878   -0.9588   -2.1737 H   0  0  0  0  0
   -4.2087    0.0205   -1.3148 C   0  0  0  0  0
   -4.5259   -0.8190   -0.6819 H   0  0  0  0  0
   -4.4830    0.9454   -0.7900 H   0  0  0  0  0
   -4.8022   -0.0215   -2.2370 H   0  0  0  0  0
  1  2  1  0  0  0
  2  3  1  0  0  0
  2  4  1  0  0  0
  2  5  1  0  0  0
  5  6  1  0  0  0
  5  7  1  0  0  0
  5  8  1  0  0  0
  8  9  1  0  0  0
  8 10  1  0  0  0
  8 11  1  0  0  0
 11 12  1  0  0  0
 11 13  1  0  0  0
 11 14  1  0  0  0
 14 15  1  0  0  0
 14 16  1  0  0  0
 14 17  1  0  0  0
 17 18  1  0  0  0
 17 19  1  0  0  0
 17 20  1  0  0  0
 20 21  1  0  0  0
 20 22  1  0  0  0
 20 23  1  0  0  0
 23 24  1  0  0  0
 23 25  1  0  0  0
 23 26  1  0  0  0
M  END
