Propane
 OpenBabel01030815083D

 11 10  0  0  0  0  0  0  0  0999 V2000
    1.8999   -0.1221    1.0853 H   0  0  0  0  0
    1.2550   -0.0642    0.1994 C   0  0  0  0  0
    1.5569    0.8253   -0.3694 H   0  0  0  0  0
    1.4758   -0.9397   -0.4255 H   0  0  0  0  0
   -0.2066   -0.0094    0.5835 C   0  0  0  0  0
   -0.4708   -0.9002    1.1866 H   0  0  0  0  0
   -0.3899    0.8608    1.2440 H   0  0  0  0  0
   -1.1015    0.0713   -0.6328 C   0  0  0  0  0
   -0.8882    0.9659   -1.2328 H   0  0  0  0  0
   -0.9701   -0.7991   -1.2894 H   0  0  0  0  0
   -2.1607    0.1113   -0.3487 H   0  0  0  0  0
  1  2  1  0  0  0
  2  3  1  0  0  0
  2  4  1  0  0  0
  2  5  1  0  0  0
  5  6  1  0  0  0
  5  7  1  0  0  0
  5  8  1  0  0  0
  8  9  1  0  0  0
  8 10  1  0  0  0
  8 11  1  0  0  0
M  END
