(5Z,8Z,11Z,14Z)-Icosa-5,8,11,14-tetraenoic acid
 OpenBabel01030815093D

 54 53  0  0  0  0  0  0  0  0999 V2000
    0.2506   -2.7272    2.0164 C   0  0  0  0  0
   -0.8717   -2.7355    2.7377 C   0  0  0  0  0
   -2.0103   -1.7971    2.5416 C   0  0  0  0  0
   -2.2955   -1.0380    3.7897 C   0  0  0  0  0
   -3.4902   -0.9675    4.3790 C   0  0  0  0  0
    0.5488   -1.7567    0.9289 C   0  0  0  0  0
   -4.7137   -1.6637    3.8988 C   0  0  0  0  0
    1.0334   -3.4699    2.2126 H   0  0  0  0  0
   -1.0028   -3.4731    3.5386 H   0  0  0  0  0
   -2.9045   -2.3741    2.2122 H   0  0  0  0  0
   -1.7939   -1.0743    1.7214 H   0  0  0  0  0
   -1.4387   -0.5088    4.2243 H   0  0  0  0  0
   -3.6165   -0.3662    5.2882 H   0  0  0  0  0
    0.9285   -2.4503   -0.3312 C   0  0  0  0  0
    1.3685   -1.0768    1.2607 H   0  0  0  0  0
   -0.3294   -1.0995    0.7306 H   0  0  0  0  0
   -5.8443   -0.6732    3.6620 C   0  0  0  0  0
   -4.4997   -2.2369    2.9676 H   0  0  0  0  0
    1.8900   -2.0242   -1.1534 C   0  0  0  0  0
    0.3597   -3.3566   -0.5698 H   0  0  0  0  0
    2.1153   -2.5781   -2.0724 H   0  0  0  0  0
    2.7047   -0.8034   -0.9121 C   0  0  0  0  0
    2.2478    0.0570   -1.4556 H   0  0  0  0  0
    4.1190   -0.9888   -1.3332 C   0  0  0  0  0
    2.6755   -0.5258    0.1682 H   0  0  0  0  0
    4.5538   -1.9746   -1.1303 H   0  0  0  0  0
    4.8525   -0.0388   -1.9175 C   0  0  0  0  0
   -5.0126   -2.4174    4.6550 H   0  0  0  0  0
   -7.1056   -1.3961    3.2117 C   0  0  0  0  0
   -5.5389    0.0715    2.9010 H   0  0  0  0  0
   -6.0440   -0.0953    4.5867 H   0  0  0  0  0
    4.3540    1.3277   -2.2251 C   0  0  0  0  0
    5.8940   -0.2432   -2.1947 H   0  0  0  0  0
    4.6896    2.0154   -1.4222 H   0  0  0  0  0
    3.2396    1.3472   -2.1916 H   0  0  0  0  0
    4.8504    1.8142   -3.5778 C   0  0  0  0  0
    5.9586    1.7954   -3.6062 H   0  0  0  0  0
    4.3466    3.2176   -3.8735 C   0  0  0  0  0
    4.5210    1.1167   -4.3733 H   0  0  0  0  0
   -6.9086   -1.9747    2.2865 H   0  0  0  0  0
   -8.2288   -0.4142    2.9953 C   0  0  0  0  0
   -7.4207   -2.1361    3.9744 H   0  0  0  0  0
    4.8412    3.7125   -5.2231 C   0  0  0  0  0
    4.6724    3.9135   -3.0740 H   0  0  0  0  0
    3.2382    3.2357   -3.8483 H   0  0  0  0  0
   -8.9498    0.1195    3.8188 O   0  0  0  0  0
   -8.4691   -0.0847    1.7042 O   0  0  0  0  0
    4.5161    3.0162   -6.0217 H   0  0  0  0  0
    5.9490    3.6955   -5.2476 H   0  0  0  0  0
    4.3395    5.1079   -5.5185 C   0  0  0  0  0
   -9.1875    0.5383    1.6547 H   0  0  0  0  0
    4.6974    5.4620   -6.4936 H   0  0  0  0  0
    4.6789    5.8289   -4.7628 H   0  0  0  0  0
    3.2422    5.1484   -5.5371 H   0  0  0  0  0
  1  2  2  0  0  0
  1  6  1  0  0  0
  1  8  1  0  0  0
  2  3  1  0  0  0
  2  9  1  0  0  0
  3  4  1  0  0  0
  3 10  1  0  0  0
  3 11  1  0  0  0
  4  5  2  0  0  0
  4 12  1  0  0  0
  5  7  1  0  0  0
  5 13  1  0  0  0
  6 14  1  0  0  0
  6 15  1  0  0  0
  6 16  1  0  0  0
  7 17  1  0  0  0
  7 18  1  0  0  0
  7 28  1  0  0  0
 14 19  2  0  0  0
 14 20  1  0  0  0
 17 29  1  0  0  0
 17 30  1  0  0  0
 17 31  1  0  0  0
 19 21  1  0  0  0
 19 22  1  0  0  0
 22 23  1  0  0  0
 22 24  1  0  0  0
 22 25  1  0  0  0
 24 26  1  0  0  0
 24 27  2  0  0  0
 27 32  1  0  0  0
 27 33  1  0  0  0
 29 40  1  0  0  0
 29 41  1  0  0  0
 29 42  1  0  0  0
 32 34  1  0  0  0
 32 35  1  0  0  0
 32 36  1  0  0  0
 36 37  1  0  0  0
 36 38  1  0  0  0
 36 39  1  0  0  0
 38 43  1  0  0  0
 38 44  1  0  0  0
 38 45  1  0  0  0
 41 46  2  0  0  0
 41 47  1  0  0  0
 43 48  1  0  0  0
 43 49  1  0  0  0
 43 50  1  0  0  0
 51 47  1  0  0  0
 50 52  1  0  0  0
 50 53  1  0  0  0
 50 54  1  0  0  0
M  END
