Hexanoic acid
 OpenBabel01030815093D

 20 19  0  0  0  0  0  0  0  0999 V2000
    0.0882    2.0199   -0.3143 C   0  0  0  0  0
    0.3103    0.6839    0.3766 C   0  0  0  0  0
   -0.3051   -0.4565   -0.4187 C   0  0  0  0  0
   -0.0772   -1.7865    0.2806 C   0  0  0  0  0
   -0.6699   -2.9463   -0.4739 C   0  0  0  0  0
   -1.2831   -2.9734   -1.5255 O   0  0  0  0  0
   -0.4871   -4.1526    0.1194 O   0  0  0  0  0
   -0.9971    2.1957   -0.4542 H   0  0  0  0  0
    0.5182    1.9920   -1.3354 H   0  0  0  0  0
    0.6989    3.1572    0.4731 C   0  0  0  0  0
   -0.1204    0.7117    1.3980 H   0  0  0  0  0
    1.3960    0.5079    0.5169 H   0  0  0  0  0
    0.1247   -0.4842   -1.4401 H   0  0  0  0  0
   -1.3906   -0.2808   -0.5592 H   0  0  0  0  0
   -0.5120   -1.7656    1.3011 H   0  0  0  0  0
    1.0083   -1.9689    0.4194 H   0  0  0  0  0
   -0.8855   -4.8363   -0.4101 H   0  0  0  0  0
    0.5391    4.1196   -0.0294 H   0  0  0  0  0
    1.7822    3.0281    0.5980 H   0  0  0  0  0
    0.2622    3.2350    1.4777 H   0  0  0  0  0
  1  2  1  0  0  0
  1  8  1  0  0  0
  1  9  1  0  0  0
  1 10  1  0  0  0
  2  3  1  0  0  0
  2 11  1  0  0  0
  2 12  1  0  0  0
  3  4  1  0  0  0
  3 13  1  0  0  0
  3 14  1  0  0  0
  4  5  1  0  0  0
  4 15  1  0  0  0
  4 16  1  0  0  0
  5  6  2  0  0  0
  5  7  1  0  0  0
  7 17  1  0  0  0
 10 18  1  0  0  0
 10 19  1  0  0  0
 10 20  1  0  0  0
M  END
