(9Z,12Z)-Octadeca-9,12-dienoic acid
 OpenBabel01030815093D

 52 51  0  0  0  0  0  0  0  0999 V2000
    3.9860    0.7278   -1.1693 C   0  0  0  0  0
    2.9406    0.7658   -0.3415 C   0  0  0  0  0
    1.6447    1.4326   -0.6432 C   0  0  0  0  0
    1.3163    2.4475    0.3946 C   0  0  0  0  0
    0.1546    2.5149    1.0472 C   0  0  0  0  0
    4.0305    1.3715   -2.5092 C   0  0  0  0  0
   -0.9875    1.5851    0.8401 C   0  0  0  0  0
    4.8978    0.1949   -0.8718 H   0  0  0  0  0
    3.0008    0.2794    0.6395 H   0  0  0  0  0
    0.8453    0.6592   -0.7092 H   0  0  0  0  0
    1.6746    1.9286   -1.6405 H   0  0  0  0  0
    2.1081    3.1757    0.6084 H   0  0  0  0  0
   -0.0063    3.3013    1.7953 H   0  0  0  0  0
    4.4334    0.3734   -3.5842 C   0  0  0  0  0
    4.7534    2.2115   -2.4734 H   0  0  0  0  0
    3.0463    1.8308   -2.7575 H   0  0  0  0  0
   -1.8034    2.1327    0.3266 H   0  0  0  0  0
   -1.4798    1.0205    2.1642 C   0  0  0  0  0
   -0.6988    0.7577    0.1517 H   0  0  0  0  0
    4.5329    1.0417   -4.9458 C   0  0  0  0  0
    3.7003   -0.4567   -3.6210 H   0  0  0  0  0
    5.4023   -0.0975   -3.3214 H   0  0  0  0  0
   -1.7581    1.8458    2.8502 H   0  0  0  0  0
   -0.6563    0.4782    2.6702 H   0  0  0  0  0
   -2.6661    0.0924    1.9593 C   0  0  0  0  0
    3.5647    1.5140   -5.2081 H   0  0  0  0  0
    4.9322    0.0469   -6.0239 C   0  0  0  0  0
    5.2669    1.8720   -4.9079 H   0  0  0  0  0
   -3.4961    0.6411    1.4700 H   0  0  0  0  0
   -3.1382   -0.4972    3.2785 C   0  0  0  0  0
   -2.3935   -0.7213    1.2571 H   0  0  0  0  0
    5.8972   -0.4291   -5.7582 H   0  0  0  0  0
    5.0394    0.7110   -7.3780 C   0  0  0  0  0
    4.1953   -0.7799   -6.0647 H   0  0  0  0  0
   -3.4087    0.3160    3.9819 H   0  0  0  0  0
   -2.3078   -1.0474    3.7656 H   0  0  0  0  0
   -4.3257   -1.4240    3.0746 C   0  0  0  0  0
    4.0859    1.1609   -7.6850 H   0  0  0  0  0
    5.3268   -0.0101   -8.1537 H   0  0  0  0  0
    5.7919    1.5109   -7.3783 H   0  0  0  0  0
   -4.7840   -2.0269    4.3931 C   0  0  0  0  0
   -4.0591   -2.2298    2.3611 H   0  0  0  0  0
   -5.1610   -0.8705    2.5998 H   0  0  0  0  0
   -5.0509   -1.2213    5.1063 H   0  0  0  0  0
   -3.9495   -2.5829    4.8652 H   0  0  0  0  0
   -5.9731   -2.9524    4.1795 C   0  0  0  0  0
   -5.7097   -3.7603    3.4672 H   0  0  0  0  0
   -6.8157   -2.3997    3.7179 H   0  0  0  0  0
   -6.4340   -3.5315    5.4929 C   0  0  0  0  0
   -7.1230   -3.0193    6.3567 O   0  0  0  0  0
   -6.0264   -4.7982    5.7426 O   0  0  0  0  0
   -6.3555   -5.0862    6.5885 H   0  0  0  0  0
  1  2  2  0  0  0
  1  6  1  0  0  0
  1  8  1  0  0  0
  2  3  1  0  0  0
  2  9  1  0  0  0
  3  4  1  0  0  0
  3 10  1  0  0  0
  3 11  1  0  0  0
  4  5  2  0  0  0
  4 12  1  0  0  0
  5  7  1  0  0  0
  5 13  1  0  0  0
  6 14  1  0  0  0
  6 15  1  0  0  0
  6 16  1  0  0  0
  7 17  1  0  0  0
  7 18  1  0  0  0
  7 19  1  0  0  0
 14 20  1  0  0  0
 14 21  1  0  0  0
 14 22  1  0  0  0
 18 23  1  0  0  0
 18 24  1  0  0  0
 18 25  1  0  0  0
 20 26  1  0  0  0
 20 27  1  0  0  0
 20 28  1  0  0  0
 25 29  1  0  0  0
 25 30  1  0  0  0
 25 31  1  0  0  0
 27 32  1  0  0  0
 27 33  1  0  0  0
 27 34  1  0  0  0
 30 35  1  0  0  0
 30 36  1  0  0  0
 30 37  1  0  0  0
 33 38  1  0  0  0
 33 39  1  0  0  0
 33 40  1  0  0  0
 37 41  1  0  0  0
 37 42  1  0  0  0
 37 43  1  0  0  0
 41 44  1  0  0  0
 41 45  1  0  0  0
 41 46  1  0  0  0
 46 47  1  0  0  0
 46 48  1  0  0  0
 46 49  1  0  0  0
 49 51  1  0  0  0
 49 50  2  0  0  0
 51 52  1  0  0  0
M  END
