Octadecanoic acid
 OpenBabel01030815093D

 56 55  0  0  0  0  0  0  0  0999 V2000
   10.6978   -0.1241   -0.0048 C   0  0  0  0  0
    9.4272    0.6946   -0.0395 C   0  0  0  0  0
    8.1925   -0.1916    0.0003 C   0  0  0  0  0
    6.9160    0.6330   -0.0348 C   0  0  0  0  0
    5.6832   -0.2552    0.0057 C   0  0  0  0  0
    4.4062    0.5688   -0.0294 C   0  0  0  0  0
    3.1739   -0.3202    0.0111 C   0  0  0  0  0
    1.8967    0.5034   -0.0240 C   0  0  0  0  0
    0.6644   -0.3857    0.0165 C   0  0  0  0  0
   -0.6124    0.4385   -0.0187 C   0  0  0  0  0
   -1.8454   -0.4496    0.0217 C   0  0  0  0  0
   -3.1214    0.3759   -0.0135 C   0  0  0  0  0
   -4.3553   -0.5109    0.0269 C   0  0  0  0  0
   -5.6298    0.3168   -0.0085 C   0  0  0  0  0
   -6.8651   -0.5682    0.0317 C   0  0  0  0  0
   -8.1363    0.2657   -0.0038 C   0  0  0  0  0
   -9.3688   -0.6207    0.0361 C   0  0  0  0  0
  -10.6582    0.1687    0.0036 C   0  0  0  0  0
  -11.8555   -0.4681    0.0335 O   0  0  0  0  0
  -10.8226    1.3683   -0.0488 O   0  0  0  0  0
   11.5870    0.5185   -0.0317 H   0  0  0  0  0
   10.7618   -0.8090   -0.8609 H   0  0  0  0  0
   10.7616   -0.7349    0.9057 H   0  0  0  0  0
    9.4085    1.3257   -0.9503 H   0  0  0  0  0
    9.4100    1.4031    0.8126 H   0  0  0  0  0
    8.2108   -0.8234    0.9112 H   0  0  0  0  0
    8.2094   -0.9003   -0.8521 H   0  0  0  0  0
    6.8981    1.2641   -0.9463 H   0  0  0  0  0
    6.8999    1.3423    0.8173 H   0  0  0  0  0
    5.7013   -0.8867    0.9169 H   0  0  0  0  0
    5.6995   -0.9642   -0.8466 H   0  0  0  0  0
    4.3879    1.1998   -0.9409 H   0  0  0  0  0
    4.3896    1.2780    0.8228 H   0  0  0  0  0
    3.1922   -0.9517    0.9223 H   0  0  0  0  0
    3.1905   -1.0292   -0.8412 H   0  0  0  0  0
    1.8783    1.1344   -0.9355 H   0  0  0  0  0
    1.8800    1.2126    0.8282 H   0  0  0  0  0
    0.6827   -1.0171    0.9277 H   0  0  0  0  0
    0.6809   -1.0946   -0.8359 H   0  0  0  0  0
   -0.6304    1.0695   -0.9302 H   0  0  0  0  0
   -0.6287    1.1477    0.8335 H   0  0  0  0  0
   -1.8276   -1.0811    0.9330 H   0  0  0  0  0
   -1.8293   -1.1586   -0.8306 H   0  0  0  0  0
   -3.1386    1.0069   -0.9250 H   0  0  0  0  0
   -3.1369    1.0851    0.8387 H   0  0  0  0  0
   -4.3383   -1.1423    0.9381 H   0  0  0  0  0
   -4.3400   -1.2198   -0.8255 H   0  0  0  0  0
   -5.6465    0.9479   -0.9200 H   0  0  0  0  0
   -5.6449    1.0261    0.8438 H   0  0  0  0  0
   -6.8488   -1.1995    0.9432 H   0  0  0  0  0
   -6.8505   -1.2769   -0.8210 H   0  0  0  0  0
   -8.1528    0.8973   -0.9148 H   0  0  0  0  0
   -8.1513    0.9750    0.8481 H   0  0  0  0  0
   -9.3570   -1.2498    0.9499 H   0  0  0  0  0
   -9.3593   -1.3261   -0.8202 H   0  0  0  0  0
  -11.7360   -1.4084    0.0743 H   0  0  0  0  0
  1  2  1  0  0  0
  1 21  1  0  0  0
  1 22  1  0  0  0
  1 23  1  0  0  0
  2  3  1  0  0  0
  2 24  1  0  0  0
  2 25  1  0  0  0
  3  4  1  0  0  0
  3 26  1  0  0  0
  3 27  1  0  0  0
  4  5  1  0  0  0
  4 28  1  0  0  0
  4 29  1  0  0  0
  5  6  1  0  0  0
  5 30  1  0  0  0
  5 31  1  0  0  0
  6  7  1  0  0  0
  6 32  1  0  0  0
  6 33  1  0  0  0
  7  8  1  0  0  0
  7 34  1  0  0  0
  7 35  1  0  0  0
  8  9  1  0  0  0
  8 36  1  0  0  0
  8 37  1  0  0  0
  9 10  1  0  0  0
  9 38  1  0  0  0
  9 39  1  0  0  0
 10 11  1  0  0  0
 10 40  1  0  0  0
 10 41  1  0  0  0
 11 12  1  0  0  0
 11 42  1  0  0  0
 11 43  1  0  0  0
 12 13  1  0  0  0
 12 44  1  0  0  0
 12 45  1  0  0  0
 13 14  1  0  0  0
 13 46  1  0  0  0
 13 47  1  0  0  0
 14 15  1  0  0  0
 14 48  1  0  0  0
 14 49  1  0  0  0
 15 16  1  0  0  0
 15 50  1  0  0  0
 15 51  1  0  0  0
 16 17  1  0  0  0
 16 52  1  0  0  0
 16 53  1  0  0  0
 17 18  1  0  0  0
 17 54  1  0  0  0
 17 55  1  0  0  0
 18 19  1  0  0  0
 18 20  2  0  0  0
 19 56  1  0  0  0
M  END
