(1R,4S)-1,7,7-Trimethylnorbornan-2-one
 OpenBabel01030815093D

 27 28  0  0  0  0  0  0  0  0999 V2000
   -0.1907   -0.1600    0.7479 C   0  0  0  0  0
   -0.2531   -1.4475   -0.1377 C   0  0  0  0  0
    1.1292   -1.4202   -0.8223 C   0  0  0  0  0
    1.3662    0.0770   -1.1058 C   0  0  0  0  0
    0.1347    0.7747   -0.4726 C   0  0  0  0  0
   -1.0227    0.4082   -1.4280 C   0  0  0  0  0
   -1.2956   -1.0800   -1.2098 C   0  0  0  0  0
    0.3208    2.2375   -0.1863 C   0  0  0  0  0
   -1.5916    1.1370   -2.2067 O   0  0  0  0  0
    0.9025   -0.2277    1.8060 C   0  0  0  0  0
   -1.4960    0.1816    1.4514 C   0  0  0  0  0
   -0.4753   -2.3839    0.4052 H   0  0  0  0  0
    1.1626   -2.0414   -1.7330 H   0  0  0  0  0
    1.9032   -1.8148   -0.1343 H   0  0  0  0  0
    1.4486    0.2962   -2.1852 H   0  0  0  0  0
    2.3043    0.4423   -0.6494 H   0  0  0  0  0
   -1.1746   -1.6650   -2.1393 H   0  0  0  0  0
   -2.3306   -1.2589   -0.8659 H   0  0  0  0  0
    1.1846    2.4072    0.4710 H   0  0  0  0  0
   -0.5638    2.6587    0.3097 H   0  0  0  0  0
    0.4876    2.8032   -1.1120 H   0  0  0  0  0
    1.8212   -0.7023    1.4255 H   0  0  0  0  0
    0.5729   -0.8169    2.6724 H   0  0  0  0  0
    1.1675    0.7755    2.1653 H   0  0  0  0  0
   -1.3754    1.0714    2.0849 H   0  0  0  0  0
   -1.8197   -0.6467    2.0955 H   0  0  0  0  0
   -2.3168    0.3946    0.7534 H   0  0  0  0  0
  1  2  1  0  0  0
  5  1  1  0  0  0
  1 10  1  0  0  0
  1 11  1  0  0  0
  2  3  1  0  0  0
  7  2  1  0  0  0
  2 12  1  0  0  0
  3  4  1  0  0  0
  3 13  1  0  0  0
  3 14  1  0  0  0
  4  5  1  0  0  0
  4 15  1  0  0  0
  4 16  1  0  0  0
  5  6  1  0  0  0
  5  8  1  0  0  0
  6  7  1  0  0  0
  6  9  2  0  0  0
  7 17  1  0  0  0
  7 18  1  0  0  0
  8 19  1  0  0  0
  8 20  1  0  0  0
  8 21  1  0  0  0
 10 22  1  0  0  0
 10 23  1  0  0  0
 10 24  1  0  0  0
 11 25  1  0  0  0
 11 26  1  0  0  0
 11 27  1  0  0  0
M  END
