Cubane
 OpenBabel01030815093D

 16 20  0  0  0  0  0  0  0  0999 V2000
    1.2455    0.5367   -0.0729 C   0  0  0  0  0
    0.9239   -0.9951    0.0237 C   0  0  0  0  0
   -0.1226   -0.7041    1.1548 C   0  0  0  0  0
    0.1989    0.8277    1.0582 C   0  0  0  0  0
    0.1226    0.7042   -1.1548 C   0  0  0  0  0
   -0.9239    0.9952   -0.0237 C   0  0  0  0  0
   -1.2454   -0.5367    0.0729 C   0  0  0  0  0
   -0.1989   -0.8277   -1.0582 C   0  0  0  0  0
    2.2431    0.9666   -0.1313 H   0  0  0  0  0
    1.6638   -1.7924    0.0427 H   0  0  0  0  0
   -0.2208   -1.2683    2.0797 H   0  0  0  0  0
    0.3583    1.4907    1.9059 H   0  0  0  0  0
    0.2208    1.2681   -2.0799 H   0  0  0  0  0
   -1.6640    1.7922   -0.0427 H   0  0  0  0  0
   -2.2430   -0.9665    0.1313 H   0  0  0  0  0
   -0.3583   -1.4906   -1.9058 H   0  0  0  0  0
  1  2  1  0  0  0
  1  4  1  0  0  0
  1  5  1  0  0  0
  1  9  1  0  0  0
  2  3  1  0  0  0
  2  8  1  0  0  0
  2 10  1  0  0  0
  3  4  1  0  0  0
  3  7  1  0  0  0
  3 11  1  0  0  0
  6  4  1  0  0  0
  4 12  1  0  0  0
  5  6  1  0  0  0
  5  8  1  0  0  0
  5 13  1  0  0  0
  6  7  1  0  0  0
  6 14  1  0  0  0
  7  8  1  0  0  0
  7 15  1  0  0  0
  8 16  1  0  0  0
M  END
