Formaldehyde
 OpenBabel01030815083D

  4  3  0  0  0  0  0  0  0  0999 V2000
    0.4838   -0.1559    0.9735 H   0  0  0  0  0
    0.0131    0.0003    0.0015 C   0  0  0  0  0
    0.6839    0.1854   -0.8390 H   0  0  0  0  0
   -1.1808   -0.0298   -0.1359 O   0  0  0  0  0
  1  2  1  0  0  0
  2  3  1  0  0  0
  2  4  2  0  0  0
M  END
