Heptanal
 OpenBabel01030815083D

 22 21  0  0  0  0  0  0  0  0999 V2000
   -1.5683   -1.6382    1.5175 C   0  0  0  0  0
   -2.6120   -2.6844    1.2145 C   0  0  0  0  0
   -2.7044   -3.7215    1.8295 O   0  0  0  0  0
   -0.9836   -1.0692    0.2360 C   0  0  0  0  0
    0.0132    0.0398    0.5323 C   0  0  0  0  0
    0.6111    0.5997   -0.7482 C   0  0  0  0  0
    1.6020    1.7150   -0.4552 C   0  0  0  0  0
    2.2037    2.2685   -1.7271 C   0  0  0  0  0
   -0.7618   -2.0403    2.1631 H   0  0  0  0  0
   -2.0532   -0.8361    2.1104 H   0  0  0  0  0
   -3.3148   -2.4632    0.3938 H   0  0  0  0  0
   -1.7936   -0.6847   -0.4167 H   0  0  0  0  0
   -0.4910   -1.8754   -0.3435 H   0  0  0  0  0
    0.8191   -0.3415    1.1915 H   0  0  0  0  0
   -0.4812    0.8498    1.1059 H   0  0  0  0  0
   -0.1946    0.9753   -1.4108 H   0  0  0  0  0
    1.1110   -0.2091   -1.3185 H   0  0  0  0  0
    2.4043    1.3407    0.2115 H   0  0  0  0  0
    1.1003    2.5255    0.1103 H   0  0  0  0  0
    2.7423    1.4948   -2.2905 H   0  0  0  0  0
    2.9172    3.0742   -1.5123 H   0  0  0  0  0
    1.4343    2.6802   -2.3936 H   0  0  0  0  0
  1  2  1  0  0  0
  1  4  1  0  0  0
  1  9  1  0  0  0
  1 10  1  0  0  0
  2  3  2  0  0  0
  2 11  1  0  0  0
  4  5  1  0  0  0
  4 12  1  0  0  0
  4 13  1  0  0  0
  5  6  1  0  0  0
  5 14  1  0  0  0
  5 15  1  0  0  0
  6  7  1  0  0  0
  6 16  1  0  0  0
  6 17  1  0  0  0
  7  8  1  0  0  0
  7 18  1  0  0  0
  7 19  1  0  0  0
  8 20  1  0  0  0
  8 21  1  0  0  0
  8 22  1  0  0  0
M  END
