Prop-2-enal
 OpenBabel01030815083D

  8  7  0  0  0  0  0  0  0  0999 V2000
    1.6175    1.6789    0.0565 O   0  0  0  0  0
    1.0921    0.5940    0.1657 C   0  0  0  0  0
   -0.3301    0.3617   -0.1788 C   0  0  0  0  0
   -0.8838   -0.8395   -0.0488 C   0  0  0  0  0
    1.6715   -0.2700    0.5331 H   0  0  0  0  0
   -0.9048    1.2215   -0.5450 H   0  0  0  0  0
   -0.3391   -1.7097    0.3113 H   0  0  0  0  0
   -1.9233   -1.0367   -0.2940 H   0  0  0  0  0
  1  2  2  0  0  0
  2  3  1  0  0  0
  2  5  1  0  0  0
  3  4  2  0  0  0
  3  6  1  0  0  0
  4  7  1  0  0  0
  4  8  1  0  0  0
M  END
