Ethyl butanoate
 OpenBabel01030815093D

 20 19  0  0  0  0  0  0  0  0999 V2000
   -0.2244    0.3080    0.4480 C   0  0  0  0  0
   -0.3799    1.0146    1.4243 O   0  0  0  0  0
   -1.3191   -0.2495   -0.1495 O   0  0  0  0  0
   -2.6096    0.0219    0.3999 C   0  0  0  0  0
   -2.7964    1.1123    0.3923 H   0  0  0  0  0
   -2.6465   -0.3203    1.4513 H   0  0  0  0  0
   -3.6102   -0.7214   -0.4641 C   0  0  0  0  0
    1.0588   -0.0754   -0.2520 C   0  0  0  0  0
   -3.4345   -1.8052   -0.4611 H   0  0  0  0  0
   -3.5808   -0.3893   -1.5101 H   0  0  0  0  0
    0.9954    0.2359   -1.3148 H   0  0  0  0  0
    1.1438   -1.1814   -0.2667 H   0  0  0  0  0
    2.2872    0.5365    0.4016 C   0  0  0  0  0
    2.1971    1.6407    0.4193 H   0  0  0  0  0
    3.5475    0.1292   -0.3284 C   0  0  0  0  0
    2.3454    0.2270    1.4639 H   0  0  0  0  0
    3.6838   -0.9605   -0.3280 H   0  0  0  0  0
    3.5342    0.4559   -1.3769 H   0  0  0  0  0
   -4.6275   -0.5496   -0.0902 H   0  0  0  0  0
    4.4357    0.5707    0.1412 H   0  0  0  0  0
  1  2  2  0  0  0
  1  3  1  0  0  0
  1  8  1  0  0  0
  3  4  1  0  0  0
  4  5  1  0  0  0
  4  6  1  0  0  0
  4  7  1  0  0  0
  7  9  1  0  0  0
  7 10  1  0  0  0
  7 19  1  0  0  0
  8 11  1  0  0  0
  8 12  1  0  0  0
  8 13  1  0  0  0
 13 14  1  0  0  0
 13 15  1  0  0  0
 13 16  1  0  0  0
 15 17  1  0  0  0
 15 18  1  0  0  0
 15 20  1  0  0  0
M  END
