Ethyl pentanoate
 OpenBabel01030815093D

 23 22  0  0  0  0  0  0  0  0999 V2000
   -0.9087    0.1769    0.3677 C   0  0  0  0  0
   -1.0838    0.8808    1.3426 O   0  0  0  0  0
   -1.9900   -0.3905   -0.2447 O   0  0  0  0  0
   -3.2903   -0.1323    0.2879 C   0  0  0  0  0
   -3.4877    0.9562    0.2793 H   0  0  0  0  0
   -3.3380   -0.4763    1.3383 H   0  0  0  0  0
   -4.2719   -0.8840   -0.5902 C   0  0  0  0  0
    0.3871   -0.1935   -0.3163 C   0  0  0  0  0
   -4.0859   -1.9661   -0.5860 H   0  0  0  0  0
   -4.2317   -0.5503   -1.6354 H   0  0  0  0  0
    0.3335    0.1188   -1.3795 H   0  0  0  0  0
    0.4817   -1.2987   -0.3312 H   0  0  0  0  0
    1.5996    0.4296    0.3549 C   0  0  0  0  0
    1.5005    1.5335    0.3734 H   0  0  0  0  0
    2.8809    0.0338   -0.3628 C   0  0  0  0  0
    1.6489    0.1194    1.4180 H   0  0  0  0  0
    2.9794   -1.0700   -0.3801 H   0  0  0  0  0
    4.0930    0.6501    0.2984 C   0  0  0  0  0
    2.8308    0.3440   -1.4256 H   0  0  0  0  0
    4.1908    0.3292    1.3441 H   0  0  0  0  0
    4.0406    1.7470    0.2979 H   0  0  0  0  0
    5.0169    0.3651   -0.2206 H   0  0  0  0  0
   -5.2958   -0.7225   -0.2300 H   0  0  0  0  0
  1  2  2  0  0  0
  1  3  1  0  0  0
  1  8  1  0  0  0
  3  4  1  0  0  0
  4  5  1  0  0  0
  4  6  1  0  0  0
  4  7  1  0  0  0
  7  9  1  0  0  0
  7 10  1  0  0  0
  7 23  1  0  0  0
  8 11  1  0  0  0
  8 12  1  0  0  0
  8 13  1  0  0  0
 13 14  1  0  0  0
 13 15  1  0  0  0
 13 16  1  0  0  0
 15 17  1  0  0  0
 15 18  1  0  0  0
 15 19  1  0  0  0
 18 20  1  0  0  0
 18 21  1  0  0  0
 18 22  1  0  0  0
M  END
