Ethyl formate
 OpenBabel01030815093D

 11 10  0  0  0  0  0  0  0  0999 V2000
    2.0200    0.4672    0.1025 C   0  0  0  0  0
    1.9574    1.4862    0.7505 O   0  0  0  0  0
    0.9027   -0.2195   -0.2237 O   0  0  0  0  0
   -0.3719    0.2699    0.2051 C   0  0  0  0  0
   -0.5313    1.2870   -0.1991 H   0  0  0  0  0
   -0.3884    0.3383    1.3089 H   0  0  0  0  0
   -1.4113   -0.7058   -0.3103 C   0  0  0  0  0
    2.8987   -0.0470   -0.3049 H   0  0  0  0  0
   -2.4145   -0.3785   -0.0091 H   0  0  0  0  0
   -1.2599   -1.7185    0.0859 H   0  0  0  0  0
   -1.4016   -0.7794   -1.4057 H   0  0  0  0  0
  1  2  2  0  0  0
  1  3  1  0  0  0
  1  8  1  0  0  0
  3  4  1  0  0  0
  4  5  1  0  0  0
  4  6  1  0  0  0
  4  7  1  0  0  0
  7  9  1  0  0  0
  7 10  1  0  0  0
  7 11  1  0  0  0
M  END
