Methyl acetate
 OpenBabel01030815093D

 11 10  0  0  0  0  0  0  0  0999 V2000
    1.8088   -0.3819    0.0087 C   0  0  0  0  0
    0.4987    0.3459    0.0935 C   0  0  0  0  0
    0.3140    1.5203    0.3428 O   0  0  0  0  0
   -0.5796   -0.4640   -0.1404 O   0  0  0  0  0
   -1.8736    0.0951   -0.0758 C   0  0  0  0  0
    2.6513    0.3213   -0.0010 H   0  0  0  0  0
    1.8693   -0.9965   -0.8984 H   0  0  0  0  0
    1.9332   -1.0482    0.8724 H   0  0  0  0  0
   -2.0145    0.8823   -0.8241 H   0  0  0  0  0
   -2.0963    0.4892    0.9214 H   0  0  0  0  0
   -2.5115   -0.7636   -0.2990 H   0  0  0  0  0
  1  2  1  0  0  0
  1  6  1  0  0  0
  1  7  1  0  0  0
  1  8  1  0  0  0
  2  3  2  0  0  0
  2  4  1  0  0  0
  4  5  1  0  0  0
  5  9  1  0  0  0
  5 10  1  0  0  0
  5 11  1  0  0  0
M  END
