Methyl formate
 OpenBabel01030815093D

  8  7  0  0  0  0  0  0  0  0999 V2000
    1.3535    0.0950    0.0470 C   0  0  0  0  0
    1.2257    1.2277    0.4480 O   0  0  0  0  0
    0.2658   -0.6643   -0.2329 O   0  0  0  0  0
   -1.0281   -0.1242   -0.0542 C   0  0  0  0  0
   -1.1944    0.7457   -0.6980 H   0  0  0  0  0
   -1.2107    0.1489    0.9903 H   0  0  0  0  0
   -1.6786   -0.9498   -0.3524 H   0  0  0  0  0
    2.2669   -0.4790   -0.1478 H   0  0  0  0  0
  1  2  2  0  0  0
  1  3  1  0  0  0
  1  8  1  0  0  0
  3  4  1  0  0  0
  4  5  1  0  0  0
  4  6  1  0  0  0
  4  7  1  0  0  0
M  END
