Pentyl butanoate
 OpenBabel01030815093D

 29 28  0  0  0  0  0  0  0  0999 V2000
    1.8203    0.7265    0.3956 C   0  0  0  0  0
    1.6624    1.6111    1.2134 O   0  0  0  0  0
    0.7295    0.0435   -0.0637 O   0  0  0  0  0
   -0.5586    0.4003    0.4389 C   0  0  0  0  0
   -0.7678    1.4637    0.2150 H   0  0  0  0  0
   -0.5807    0.2752    1.5383 H   0  0  0  0  0
   -1.5592   -0.5239   -0.2495 C   0  0  0  0  0
    3.1025    0.2310   -0.2320 C   0  0  0  0  0
   -2.9693   -0.2149    0.2265 C   0  0  0  0  0
   -1.3119   -1.5849   -0.0444 H   0  0  0  0  0
   -1.4960   -0.4123   -1.3507 H   0  0  0  0  0
   -3.2160    0.8463    0.0208 H   0  0  0  0  0
   -3.0316   -0.3263    1.3279 H   0  0  0  0  0
   -3.9889   -1.1221   -0.4435 C   0  0  0  0  0
   -5.3931   -0.8175    0.0274 C   0  0  0  0  0
   -3.7423   -2.1829   -0.2378 H   0  0  0  0  0
   -3.9263   -1.0112   -1.5444 H   0  0  0  0  0
   -5.4955   -0.9549    1.1121 H   0  0  0  0  0
   -6.1267   -1.4743   -0.4571 H   0  0  0  0  0
   -5.6805    0.2181   -0.1982 H   0  0  0  0  0
    3.0224    0.3232   -1.3346 H   0  0  0  0  0
    3.2073   -0.8542   -0.0275 H   0  0  0  0  0
    4.3263    0.9802    0.2695 C   0  0  0  0  0
    4.2165    2.0641    0.0676 H   0  0  0  0  0
    5.5863    0.4551   -0.3813 C   0  0  0  0  0
    4.4007    0.8903    1.3713 H   0  0  0  0  0
    5.7417   -0.6106   -0.1662 H   0  0  0  0  0
    6.4711    0.9947   -0.0202 H   0  0  0  0  0
    5.5572    0.5667   -1.4734 H   0  0  0  0  0
  1  2  2  0  0  0
  1  3  1  0  0  0
  1  8  1  0  0  0
  3  4  1  0  0  0
  4  5  1  0  0  0
  4  6  1  0  0  0
  4  7  1  0  0  0
  7  9  1  0  0  0
  7 10  1  0  0  0
  7 11  1  0  0  0
  8 21  1  0  0  0
  8 22  1  0  0  0
  8 23  1  0  0  0
  9 12  1  0  0  0
  9 13  1  0  0  0
  9 14  1  0  0  0
 14 15  1  0  0  0
 14 16  1  0  0  0
 14 17  1  0  0  0
 15 18  1  0  0  0
 15 19  1  0  0  0
 15 20  1  0  0  0
 23 24  1  0  0  0
 23 25  1  0  0  0
 23 26  1  0  0  0
 25 27  1  0  0  0
 25 28  1  0  0  0
 25 29  1  0  0  0
M  END
