Propyl formate
 OpenBabel01030815093D

 14 13  0  0  0  0  0  0  0  0999 V2000
    2.7131    0.5405    0.0000 C   0  0  0  0  0
    2.6282    1.6496    0.4740 O   0  0  0  0  0
    1.6099   -0.2081   -0.2223 O   0  0  0  0  0
    0.3242    0.3241    0.1088 C   0  0  0  0  0
    0.1516    1.2595   -0.4566 H   0  0  0  0  0
    0.2891    0.5700    1.1871 H   0  0  0  0  0
   -0.7005   -0.7463   -0.2546 C   0  0  0  0  0
    3.6036   -0.0191   -0.3102 H   0  0  0  0  0
   -2.0977   -0.2648    0.0644 C   0  0  0  0  0
   -0.4870   -1.6859    0.2925 H   0  0  0  0  0
   -0.6228   -1.0048   -1.3293 H   0  0  0  0  0
   -2.3511    0.6458   -0.4948 H   0  0  0  0  0
   -2.2144   -0.0354    1.1321 H   0  0  0  0  0
   -2.8462   -1.0254   -0.1912 H   0  0  0  0  0
  1  2  2  0  0  0
  1  3  1  0  0  0
  1  8  1  0  0  0
  3  4  1  0  0  0
  4  5  1  0  0  0
  4  6  1  0  0  0
  4  7  1  0  0  0
  7  9  1  0  0  0
  7 10  1  0  0  0
  7 11  1  0  0  0
  9 12  1  0  0  0
  9 13  1  0  0  0
  9 14  1  0  0  0
M  END
