Propyl propanoate
 OpenBabel01030815093D

 20 19  0  0  0  0  0  0  0  0999 V2000
    1.2110    0.3746    0.2704 C   0  0  0  0  0
    1.0898    1.2042    1.1495 O   0  0  0  0  0
    0.0924   -0.2215   -0.2402 O   0  0  0  0  0
   -1.1810    0.1575    0.2830 C   0  0  0  0  0
   -1.3399    1.2429    0.1369 H   0  0  0  0  0
   -1.2167   -0.0460    1.3702 H   0  0  0  0  0
   -2.2203   -0.6656   -0.4735 C   0  0  0  0  0
    2.4736   -0.1341   -0.3878 C   0  0  0  0  0
   -3.6109   -0.3300    0.0159 C   0  0  0  0  0
   -2.0226   -1.7484   -0.3456 H   0  0  0  0  0
   -2.1439   -0.4767   -1.5627 H   0  0  0  0  0
   -3.8487    0.7318   -0.1330 H   0  0  0  0  0
   -3.7271   -0.5436    1.0868 H   0  0  0  0  0
    2.4007    0.0410   -1.4802 H   0  0  0  0  0
    2.5226   -1.2345   -0.2607 H   0  0  0  0  0
    3.7225    0.5134    0.1645 C   0  0  0  0  0
   -4.3702   -0.9142   -0.5193 H   0  0  0  0  0
    3.7148    1.6019    0.0221 H   0  0  0  0  0
    4.6166    0.1206   -0.3364 H   0  0  0  0  0
    3.8371    0.3269    1.2403 H   0  0  0  0  0
  1  2  2  0  0  0
  1  3  1  0  0  0
  1  8  1  0  0  0
  3  4  1  0  0  0
  4  5  1  0  0  0
  4  6  1  0  0  0
  4  7  1  0  0  0
  7  9  1  0  0  0
  7 10  1  0  0  0
  7 11  1  0  0  0
  8 14  1  0  0  0
  8 15  1  0  0  0
  8 16  1  0  0  0
  9 12  1  0  0  0
  9 13  1  0  0  0
  9 17  1  0  0  0
 16 18  1  0  0  0
 16 19  1  0  0  0
 16 20  1  0  0  0
M  END
