(2R)-2,3-Dihydroxypropanal
 OpenBabel01030815083D

 12 11  0  0  0  0  0  0  0  0999 V2000
   -0.4770    1.5571    0.2702 C   0  0  0  0  0
    0.4242    0.3314    0.1441 C   0  0  0  0  0
   -0.4661   -0.9353    0.1725 C   0  0  0  0  0
    1.2714    0.3400   -0.9758 O   0  0  0  0  0
    0.2501   -2.0941    0.4869 O   0  0  0  0  0
   -0.7271    2.2909   -0.6560 O   0  0  0  0  0
   -0.9105    1.7394    1.2664 H   0  0  0  0  0
    1.1565    0.3246    0.9853 H   0  0  0  0  0
   -1.0045   -1.0600   -0.7880 H   0  0  0  0  0
   -1.2158   -0.8747    0.9805 H   0  0  0  0  0
    0.7475    0.5581   -1.7378 H   0  0  0  0  0
    0.9513   -2.1775   -0.1483 H   0  0  0  0  0
  1  2  1  0  0  0
  1  6  2  0  0  0
  1  7  1  0  0  0
  2  3  1  0  0  0
  2  4  1  0  0  0
  2  8  1  0  0  0
  3  5  1  0  0  0
  3  9  1  0  0  0
  3 10  1  0  0  0
  4 11  1  0  0  0
  5 12  1  0  0  0
M  END
