(2S,3R,4S,5R)-2,3,4,5,6-Pentahydroxyhexanal
 OpenBabel01030815093D

 24 23  0  0  0  0  0  0  0  0999 V2000
    2.7673   -0.8576   -0.0850 C   0  0  0  0  0
    1.6429    0.1923    0.0912 C   0  0  0  0  0
    3.9632   -0.4748    0.5338 O   0  0  0  0  0
    2.9384   -1.0852   -1.1562 H   0  0  0  0  0
    2.5133   -1.8024    0.4263 H   0  0  0  0  0
    1.6327    0.5761    1.1392 H   0  0  0  0  0
    0.2592   -0.4338   -0.2453 C   0  0  0  0  0
    1.9123    1.3647   -0.6403 O   0  0  0  0  0
    4.2195    0.3629    0.1671 H   0  0  0  0  0
   -0.9069    0.4640    0.2712 C   0  0  0  0  0
    0.1948   -1.4258    0.2685 H   0  0  0  0  0
    0.2233   -0.6431   -1.6396 O   0  0  0  0  0
    1.9462    1.1299   -1.5607 H   0  0  0  0  0
   -2.1914   -0.3723    0.5422 C   0  0  0  0  0
   -1.2668    1.4870   -0.6294 O   0  0  0  0  0
   -0.5912    0.9313    1.2384 H   0  0  0  0  0
   -0.6658   -0.8920   -1.8594 H   0  0  0  0  0
   -3.1841    0.4709    1.3463 C   0  0  0  0  0
   -1.9285   -1.2737    1.1455 H   0  0  0  0  0
   -2.7295   -0.9416   -0.6216 O   0  0  0  0  0
   -0.4625    1.9058   -0.9092 H   0  0  0  0  0
   -4.2970    0.7331    0.9615 O   0  0  0  0  0
   -2.8244    0.8344    2.3226 H   0  0  0  0  0
   -3.1651   -0.2502   -1.1070 H   0  0  0  0  0
  1  2  1  0  0  0
  1  3  1  0  0  0
  1  4  1  0  0  0
  1  5  1  0  0  0
  2  6  1  0  0  0
  2  7  1  0  0  0
  2  8  1  0  0  0
  3  9  1  0  0  0
  7 10  1  0  0  0
  7 11  1  0  0  0
  7 12  1  0  0  0
  8 13  1  0  0  0
 10 14  1  0  0  0
 10 15  1  0  0  0
 10 16  1  0  0  0
 12 17  1  0  0  0
 14 18  1  0  0  0
 14 19  1  0  0  0
 14 20  1  0  0  0
 15 21  1  0  0  0
 18 23  1  0  0  0
 18 22  2  0  0  0
 20 24  1  0  0  0
M  END
