(3R,4S,5R)-1,3,4,5,6-Pentahydroxyhexan-2-one
 OpenBabel01030815093D

 24 23  0  0  0  0  0  0  0  0999 V2000
   -0.7456   -0.4678   -0.0428 C   0  0  0  0  0
   -2.1272    0.0194    0.4219 C   0  0  0  0  0
   -3.2293   -1.0315    0.4173 C   0  0  0  0  0
   -0.8633   -0.7769   -1.1130 H   0  0  0  0  0
   -0.4378   -1.6119    0.7225 O   0  0  0  0  0
    0.3672    0.6212    0.0244 C   0  0  0  0  0
   -2.3309    1.1696    0.7612 O   0  0  0  0  0
   -4.5270   -0.5173    0.3429 O   0  0  0  0  0
   -3.1061   -1.6766    1.3110 H   0  0  0  0  0
   -3.1616   -1.6756   -0.4775 H   0  0  0  0  0
    1.6703    0.0720   -0.6269 C   0  0  0  0  0
    0.6951    0.9923    1.3448 O   0  0  0  0  0
    0.0284    1.5210   -0.5449 H   0  0  0  0  0
    1.4321   -0.3375   -1.6377 H   0  0  0  0  0
    2.7365    1.1853   -0.7327 C   0  0  0  0  0
    2.1257   -1.0796    0.0524 O   0  0  0  0  0
    3.9545    0.7409   -1.2577 O   0  0  0  0  0
    3.0265    1.5824    0.2573 H   0  0  0  0  0
    2.3353    2.0249   -1.3330 H   0  0  0  0  0
    3.7791    0.3334   -2.0971 H   0  0  0  0  0
    2.5995   -0.7873    0.8235 H   0  0  0  0  0
   -4.6284    0.1286    1.0318 H   0  0  0  0  0
    0.5044   -1.7591    0.6108 H   0  0  0  0  0
   -0.0974    1.3300    1.7412 H   0  0  0  0  0
  1  2  1  0  0  0
  1  4  1  0  0  0
  1  5  1  0  0  0
  1  6  1  0  0  0
  2  3  1  0  0  0
  2  7  2  0  0  0
  3  8  1  0  0  0
  3  9  1  0  0  0
  3 10  1  0  0  0
  5 23  1  0  0  0
  6 11  1  0  0  0
  6 12  1  0  0  0
  6 13  1  0  0  0
  8 22  1  0  0  0
 11 14  1  0  0  0
 11 15  1  0  0  0
 11 16  1  0  0  0
 12 24  1  0  0  0
 15 17  1  0  0  0
 15 18  1  0  0  0
 15 19  1  0  0  0
 16 21  1  0  0  0
 17 20  1  0  0  0
M  END
