1,3-Dihydroxypropan-2-one
 OpenBabel01030815083D

 12 11  0  0  0  0  0  0  0  0999 V2000
    1.2364   -0.5202   -0.0037 C   0  0  0  0  0
    0.0396    0.4157    0.1008 C   0  0  0  0  0
   -1.3083   -0.2350   -0.1796 C   0  0  0  0  0
    2.4501    0.1062   -0.2965 O   0  0  0  0  0
    0.1517    1.5921    0.3863 O   0  0  0  0  0
   -2.4023    0.3945    0.4188 O   0  0  0  0  0
    1.1101   -1.2316   -0.8394 H   0  0  0  0  0
    1.3119   -1.1063    0.9341 H   0  0  0  0  0
   -1.3469   -1.2586    0.2343 H   0  0  0  0  0
   -1.4467   -0.3057   -1.2772 H   0  0  0  0  0
    2.5634    0.8282    0.3104 H   0  0  0  0  0
   -2.3589    1.3206    0.2117 H   0  0  0  0  0
  1  2  1  0  0  0
  1  4  1  0  0  0
  1  7  1  0  0  0
  1  8  1  0  0  0
  2  3  1  0  0  0
  2  5  2  0  0  0
  3  6  1  0  0  0
  3  9  1  0  0  0
  3 10  1  0  0  0
  4 11  1  0  0  0
  6 12  1  0  0  0
M  END
