1,2-Thiazole
 OpenBabel01030815093D

  8  8  0  0  0  0  0  0  0  0999 V2000
    0.8426    0.7619   -0.3130 C   0  0  0  0  0
    0.4250   -0.5384   -0.2619 C   0  0  0  0  0
    1.7924    1.0994   -0.7253 H   0  0  0  0  0
    0.9854   -1.3999   -0.6249 H   0  0  0  0  0
   -0.3364    1.8130    0.3642 S   0  0  0  0  0
   -1.4012    0.5002    0.7202 N   0  0  0  0  0
   -0.8790   -0.6524    0.3428 C   0  0  0  0  0
   -1.4287   -1.5838    0.4979 H   0  0  0  0  0
  1  2  2  0  0  0
  1  3  1  0  0  0
  1  5  1  0  0  0
  2  4  1  0  0  0
  7  2  1  0  0  0
  5  6  1  0  0  0
  6  7  2  0  0  0
  7  8  1  0  0  0
M  END
