1,3-Oxazole
 OpenBabel01030815093D

  8  8  0  0  0  0  0  0  0  0999 V2000
    0.8042    0.5831   -0.2839 C   0  0  0  0  0
    0.6317   -0.7698   -0.3941 C   0  0  0  0  0
    1.5876    1.2889   -0.5417 H   0  0  0  0  0
    1.2739   -1.5512   -0.7951 H   0  0  0  0  0
   -0.3225    1.1239    0.3032 O   0  0  0  0  0
   -1.1838    0.0852    0.5496 C   0  0  0  0  0
   -0.6453   -1.0572    0.1458 N   0  0  0  0  0
   -2.1459    0.2970    1.0162 H   0  0  0  0  0
  1  2  2  0  0  0
  1  3  1  0  0  0
  1  5  1  0  0  0
  2  4  1  0  0  0
  7  2  1  0  0  0
  5  6  1  0  0  0
  6  7  2  0  0  0
  6  8  1  0  0  0
M  END
