1H-Pyrazole
 OpenBabel01030815093D

  9  9  0  0  0  0  0  0  0  0999 V2000
    0.8566    0.5563   -0.0345 C   0  0  0  0  0
    0.5921   -0.8120    0.0086 C   0  0  0  0  0
   -0.8191   -0.9544    0.0445 C   0  0  0  0  0
    1.8143    1.0744   -0.0700 H   0  0  0  0  0
    1.3225   -1.6160    0.0134 H   0  0  0  0  0
   -1.4170   -1.8630    0.0830 H   0  0  0  0  0
   -0.3838    1.1841   -0.0235 N   0  0  0  0  0
   -1.3894    0.2796    0.0239 N   0  0  0  0  0
   -0.5762    2.1509   -0.0453 H   0  0  0  0  0
  1  2  2  0  0  0
  1  4  1  0  0  0
  1  7  1  0  0  0
  2  3  1  0  0  0
  2  5  1  0  0  0
  3  6  1  0  0  0
  8  3  2  0  0  0
  7  8  1  0  0  0
  7  9  1  0  0  0
M  END
