Pyridine-4-carboxamide
 OpenBabel01030815093D

 15 15  0  0  0  0  0  0  0  0999 V2000
    1.3584    1.4474   -0.9278 C   0  0  0  0  0
    0.0809    1.2141   -0.4186 C   0  0  0  0  0
   -0.1499    0.0384    0.2920 C   0  0  0  0  0
    0.8955   -0.8670    0.4797 C   0  0  0  0  0
    2.1511   -0.5741   -0.0585 C   0  0  0  0  0
    2.3703    0.5674   -0.7500 N   0  0  0  0  0
   -1.5066   -0.2171    0.8613 C   0  0  0  0  0
   -2.4611   -0.7753    0.0059 N   0  0  0  0  0
   -1.8418    0.0222    2.0140 O   0  0  0  0  0
    1.5935    2.3577   -1.4891 H   0  0  0  0  0
   -0.7238    1.9436   -0.5606 H   0  0  0  0  0
    0.7501   -1.7885    1.0510 H   0  0  0  0  0
    3.0243   -1.2325    0.0482 H   0  0  0  0  0
   -2.2112   -1.0461   -0.9121 H   0  0  0  0  0
   -3.3299   -1.0905    0.3646 H   0  0  0  0  0
  1  2  1  0  0  0
  1  6  2  0  0  0
  1 10  1  0  0  0
  2  3  2  0  0  0
  2 11  1  0  0  0
  3  4  1  0  0  0
  3  7  1  0  0  0
  4  5  2  0  0  0
  4 12  1  0  0  0
  5  6  1  0  0  0
  5 13  1  0  0  0
  7  8  1  0  0  0
  7  9  2  0  0  0
  8 14  1  0  0  0
  8 15  1  0  0  0
M  END
