Pyridine-3-carboxamide
 OpenBabel01030815093D

 15 15  0  0  0  0  0  0  0  0999 V2000
    1.8126    0.1282   -1.0025 C   0  0  0  0  0
    2.3310    0.7691    0.1226 C   0  0  0  0  0
    1.5310    1.1313    1.1537 N   0  0  0  0  0
    0.2036    0.8690    1.1070 C   0  0  0  0  0
   -0.3636    0.2059    0.0121 C   0  0  0  0  0
    0.4539   -0.1558   -1.0565 C   0  0  0  0  0
   -1.8204   -0.1066   -0.0440 C   0  0  0  0  0
   -2.2195   -1.3886    0.3623 N   0  0  0  0  0
   -2.6865    0.6705   -0.4259 O   0  0  0  0  0
    2.4586   -0.1543   -1.8376 H   0  0  0  0  0
    3.4010    1.0052    0.2015 H   0  0  0  0  0
   -0.3859    1.2069    1.9682 H   0  0  0  0  0
    0.0256   -0.6624   -1.9250 H   0  0  0  0  0
   -3.1806   -1.5539    0.5384 H   0  0  0  0  0
   -1.5608   -1.9643    0.8258 H   0  0  0  0  0
  1  2  2  0  0  0
  6  1  1  0  0  0
  1 10  1  0  0  0
  2  3  1  0  0  0
  2 11  1  0  0  0
  3  4  2  0  0  0
  4  5  1  0  0  0
  4 12  1  0  0  0
  5  6  2  0  0  0
  5  7  1  0  0  0
  6 13  1  0  0  0
  7  8  1  0  0  0
  7  9  2  0  0  0
  8 14  1  0  0  0
  8 15  1  0  0  0
M  END
