Pyridine-2-carboxylic acid
 OpenBabel01030815093D

 14 14  0  0  0  0  0  0  0  0999 V2000
    1.4028    1.1992    0.1453 C   0  0  0  0  0
    0.0350    1.1324   -0.1118 C   0  0  0  0  0
   -0.6045   -0.1062   -0.0190 C   0  0  0  0  0
    0.0679   -1.2348    0.3263 N   0  0  0  0  0
    2.0909    0.0416    0.4901 C   0  0  0  0  0
   -2.0694   -0.2251   -0.2802 C   0  0  0  0  0
   -2.4128   -1.0528   -1.2909 O   0  0  0  0  0
   -2.9780    0.3538    0.2866 O   0  0  0  0  0
    1.9283    2.1576    0.0774 H   0  0  0  0  0
   -0.5309    2.0327   -0.3753 H   0  0  0  0  0
    3.1661    0.0697    0.6940 H   0  0  0  0  0
   -3.3612   -1.0910   -1.3702 H   0  0  0  0  0
    1.3920   -1.1654    0.5773 C   0  0  0  0  0
    1.8738   -2.1115    0.8505 H   0  0  0  0  0
  1  2  2  0  0  0
  5  1  1  0  0  0
  1  9  1  0  0  0
  2  3  1  0  0  0
  2 10  1  0  0  0
  3  4  2  0  0  0
  3  6  1  0  0  0
 13  4  1  0  0  0
  5 11  1  0  0  0
  5 13  2  0  0  0
  6  7  1  0  0  0
  6  8  2  0  0  0
  7 12  1  0  0  0
 13 14  1  0  0  0
M  END
