Propanone
 OpenBabel01030815093D

 10  9  0  0  0  0  0  0  0  0999 V2000
    1.8472    0.0843    1.2375 H   0  0  0  0  0
    1.2377    0.0632    0.3249 C   0  0  0  0  0
    1.4644    0.9708   -0.2496 H   0  0  0  0  0
    1.5617   -0.7982   -0.2736 H   0  0  0  0  0
   -0.2376   -0.0220    0.6092 C   0  0  0  0  0
   -0.6796   -0.0632    1.7418 O   0  0  0  0  0
   -1.1293   -0.0531   -0.6026 C   0  0  0  0  0
   -0.9842    0.8517   -1.2071 H   0  0  0  0  0
   -0.8855   -0.9172   -1.2343 H   0  0  0  0  0
   -2.1947   -0.1165   -0.3463 H   0  0  0  0  0
  1  2  1  0  0  0
  2  3  1  0  0  0
  2  4  1  0  0  0
  2  5  1  0  0  0
  5  6  2  0  0  0
  5  7  1  0  0  0
  7  8  1  0  0  0
  7  9  1  0  0  0
  7 10  1  0  0  0
M  END
