Cyclopent-2-en-1-one
 OpenBabel01030815093D

 12 12  0  0  0  0  0  0  0  0999 V2000
    0.1980    1.1149    0.0114 C   0  0  0  0  0
    1.1440   -0.0924   -0.0015 C   0  0  0  0  0
    0.2272   -1.3099   -0.0135 C   0  0  0  0  0
   -1.1826    0.5335    0.0062 C   0  0  0  0  0
   -1.1747   -0.8065   -0.0077 C   0  0  0  0  0
    0.5772   -2.4697   -0.0255 O   0  0  0  0  0
    0.3468    1.7708   -0.8661 H   0  0  0  0  0
    0.3479    1.7531    0.9016 H   0  0  0  0  0
    1.8091   -0.1084    0.8807 H   0  0  0  0  0
    1.8079   -0.0904   -0.8848 H   0  0  0  0  0
   -2.0631    1.1767    0.0133 H   0  0  0  0  0
   -2.0378   -1.4718   -0.0142 H   0  0  0  0  0
  1  2  1  0  0  0
  1  4  1  0  0  0
  1  7  1  0  0  0
  1  8  1  0  0  0
  2  3  1  0  0  0
  2  9  1  0  0  0
  2 10  1  0  0  0
  5  3  1  0  0  0
  3  6  2  0  0  0
  4  5  2  0  0  0
  4 11  1  0  0  0
  5 12  1  0  0  0
M  END
