Heptan-4-one
 OpenBabel01030815093D

 22 21  0  0  0  0  0  0  0  0999 V2000
    4.1492    0.1599    2.2027 H   0  0  0  0  0
    3.5593    0.0853    1.2803 C   0  0  0  0  0
    3.8582    0.9197    0.6318 H   0  0  0  0  0
    3.8575   -0.8430    0.7749 H   0  0  0  0  0
    2.0767    0.1098    1.5779 C   0  0  0  0  0
    1.8120   -0.7217    2.2606 H   0  0  0  0  0
    1.8137    1.0368    2.1249 H   0  0  0  0  0
    1.2599    0.0124    0.3017 C   0  0  0  0  0
    1.5237    0.8462   -0.3805 H   0  0  0  0  0
    1.5218   -0.9163   -0.2451 H   0  0  0  0  0
   -0.2405    0.0295    0.5154 C   0  0  0  0  0
   -0.7541    0.1050    1.6142 O   0  0  0  0  0
   -1.0414   -0.0574   -0.7685 C   0  0  0  0  0
   -0.7316    0.7779   -1.4292 H   0  0  0  0  0
   -0.7458   -0.9850   -1.2997 H   0  0  0  0  0
   -2.5468   -0.0305   -0.5719 C   0  0  0  0  0
   -2.8567   -0.8634    0.0897 H   0  0  0  0  0
   -2.8419    0.8955   -0.0398 H   0  0  0  0  0
   -3.2719   -0.1220   -1.8959 C   0  0  0  0  0
   -3.0107    0.7116   -2.5616 H   0  0  0  0  0
   -3.0310   -1.0518   -2.4284 H   0  0  0  0  0
   -4.3598   -0.0987   -1.7535 H   0  0  0  0  0
  1  2  1  0  0  0
  2  3  1  0  0  0
  2  4  1  0  0  0
  2  5  1  0  0  0
  5  6  1  0  0  0
  5  7  1  0  0  0
  5  8  1  0  0  0
  8  9  1  0  0  0
  8 10  1  0  0  0
  8 11  1  0  0  0
 11 12  2  0  0  0
 11 13  1  0  0  0
 13 14  1  0  0  0
 13 15  1  0  0  0
 13 16  1  0  0  0
 16 17  1  0  0  0
 16 18  1  0  0  0
 16 19  1  0  0  0
 19 20  1  0  0  0
 19 21  1  0  0  0
 19 22  1  0  0  0
M  END
