Hexan-3-one
 OpenBabel01030815093D

 19 18  0  0  0  0  0  0  0  0999 V2000
    3.6454   -0.0352    1.7317 H   0  0  0  0  0
    3.0276    0.0378    0.8276 C   0  0  0  0  0
    3.2724    0.9905    0.3393 H   0  0  0  0  0
    3.3429   -0.7664    0.1494 H   0  0  0  0  0
    1.5562   -0.0576    1.1639 C   0  0  0  0  0
    1.3469   -1.0106    1.6889 H   0  0  0  0  0
    1.2766    0.7416    1.8786 H   0  0  0  0  0
    0.7007    0.0430   -0.0865 C   0  0  0  0  0
    0.9113    0.9958   -0.6137 H   0  0  0  0  0
    0.9768   -0.7610   -0.7989 H   0  0  0  0  0
   -0.7913   -0.0379    0.1677 C   0  0  0  0  0
   -1.2707   -0.1587    1.2775 O   0  0  0  0  0
   -1.6320    0.0472   -1.0915 C   0  0  0  0  0
   -1.3882    1.0000   -1.6031 H   0  0  0  0  0
   -1.3034   -0.7566   -1.7805 H   0  0  0  0  0
   -3.1207   -0.0489   -0.8576 C   0  0  0  0  0
   -3.3969   -1.0005   -0.3848 H   0  0  0  0  0
   -3.4824    0.7554   -0.2036 H   0  0  0  0  0
   -3.6713    0.0220   -1.8044 H   0  0  0  0  0
  1  2  1  0  0  0
  2  3  1  0  0  0
  2  4  1  0  0  0
  2  5  1  0  0  0
  5  6  1  0  0  0
  5  7  1  0  0  0
  5  8  1  0  0  0
  8  9  1  0  0  0
  8 10  1  0  0  0
  8 11  1  0  0  0
 11 12  2  0  0  0
 11 13  1  0  0  0
 13 14  1  0  0  0
 13 15  1  0  0  0
 13 16  1  0  0  0
 16 17  1  0  0  0
 16 18  1  0  0  0
 16 19  1  0  0  0
M  END
