Cyclohexa-2,4-diene-1,6-dione
 OpenBabel01030815093D

 12 12  0  0  0  0  0  0  0  0999 V2000
    0.8550    1.1172   -0.1016 C   0  0  0  0  0
    1.3915   -0.2215    0.0631 C   0  0  0  0  0
    0.5939   -1.2942    0.1613 C   0  0  0  0  0
   -0.8819   -1.1702    0.1068 C   0  0  0  0  0
   -1.4477    0.2415   -0.0668 C   0  0  0  0  0
   -0.4643    1.3459   -0.1635 C   0  0  0  0  0
   -1.6032   -2.1425    0.1958 O   0  0  0  0  0
    1.5741    1.9415   -0.1742 H   0  0  0  0  0
    2.4821   -0.3244    0.1046 H   0  0  0  0  0
    1.0061   -2.3034    0.2856 H   0  0  0  0  0
   -2.6423    0.4498   -0.1229 O   0  0  0  0  0
   -0.8632    2.3603   -0.2882 H   0  0  0  0  0
  1  2  1  0  0  0
  6  1  2  0  0  0
  1  8  1  0  0  0
  2  3  2  0  0  0
  2  9  1  0  0  0
  3  4  1  0  0  0
  3 10  1  0  0  0
  4  5  1  0  0  0
  4  7  2  0  0  0
  5  6  1  0  0  0
  5 11  2  0  0  0
  6 12  1  0  0  0
M  END
