Octan-2-one
 OpenBabel01030815093D

 25 24  0  0  0  0  0  0  0  0999 V2000
    0.3458    0.3436    1.7588 C   0  0  0  0  0
    0.5570    0.1814    0.2624 C   0  0  0  0  0
   -0.7104   -0.3065   -0.4219 C   0  0  0  0  0
   -0.4993   -0.4545   -1.9178 C   0  0  0  0  0
   -1.7164   -0.9387   -2.6751 C   0  0  0  0  0
   -0.4830    1.0550    1.9494 H   0  0  0  0  0
    0.0177   -0.6185    2.2016 H   0  0  0  0  0
    1.3882   -0.5274    0.0722 H   0  0  0  0  0
    0.8816    1.1450   -0.1802 H   0  0  0  0  0
   -1.5443    0.3966   -0.2246 H   0  0  0  0  0
   -1.0298   -1.2741    0.0146 H   0  0  0  0  0
    0.3314   -1.1617   -2.1181 H   0  0  0  0  0
   -0.1804    0.5137   -2.3550 H   0  0  0  0  0
   -1.5484   -0.9778   -4.1725 C   0  0  0  0  0
    1.6119    0.8262    2.4485 C   0  0  0  0  0
    1.4007    0.9975    3.9358 C   0  0  0  0  0
    1.9434    1.7840    2.0005 H   0  0  0  0  0
    2.4376    0.1106    2.2634 H   0  0  0  0  0
    0.6120    1.7307    4.1512 H   0  0  0  0  0
    2.3162    1.3455    4.4309 H   0  0  0  0  0
    1.1070    0.0537    4.4144 H   0  0  0  0  0
   -2.7541   -1.2757   -2.1390 O   0  0  0  0  0
   -2.4253   -1.3910   -4.6875 H   0  0  0  0  0
   -0.6804   -1.5909   -4.4477 H   0  0  0  0  0
   -1.3787    0.0337   -4.5643 H   0  0  0  0  0
  1  2  1  0  0  0
  1  6  1  0  0  0
  1  7  1  0  0  0
  1 15  1  0  0  0
  2  3  1  0  0  0
  2  8  1  0  0  0
  2  9  1  0  0  0
  3  4  1  0  0  0
  3 10  1  0  0  0
  3 11  1  0  0  0
  4  5  1  0  0  0
  4 12  1  0  0  0
  4 13  1  0  0  0
  5 14  1  0  0  0
 22  5  2  0  0  0
 14 23  1  0  0  0
 14 24  1  0  0  0
 14 25  1  0  0  0
 15 16  1  0  0  0
 15 17  1  0  0  0
 15 18  1  0  0  0
 16 19  1  0  0  0
 16 20  1  0  0  0
 16 21  1  0  0  0
M  END
