(Z)-4-Hydroxypent-3-en-2-one
 OpenBabel01030815093D

 15 14  0  0  0  0  0  0  0  0999 V2000
    2.5712   -0.2160   -0.0298 C   0  0  0  0  0
    1.2616    0.5033    0.1025 C   0  0  0  0  0
    0.0508   -0.2999   -0.0535 C   0  0  0  0  0
   -1.1943    0.2402    0.0427 C   0  0  0  0  0
   -2.4426   -0.5599   -0.1168 C   0  0  0  0  0
    1.1992    1.7127    0.3309 O   0  0  0  0  0
   -1.4317    1.5448    0.2874 O   0  0  0  0  0
    2.6566   -0.6667   -1.0273 H   0  0  0  0  0
    2.6360   -1.0271    0.7073 H   0  0  0  0  0
    3.4362    0.4434    0.1173 H   0  0  0  0  0
    0.1725   -1.3691   -0.2535 H   0  0  0  0  0
   -3.1062   -0.4406    0.7507 H   0  0  0  0  0
   -2.2236   -1.6296   -0.2285 H   0  0  0  0  0
   -3.0017   -0.2365   -1.0058 H   0  0  0  0  0
   -0.5840    2.0010    0.3766 H   0  0  0  0  0
  1  2  1  0  0  0
  1  8  1  0  0  0
  1  9  1  0  0  0
  1 10  1  0  0  0
  2  3  1  0  0  0
  2  6  2  0  0  0
  3  4  2  0  0  0
  3 11  1  0  0  0
  4  5  1  0  0  0
  4  7  1  0  0  0
  5 12  1  0  0  0
  5 13  1  0  0  0
  5 14  1  0  0  0
  7 15  1  0  0  0
M  END
