Acetylene
 OpenBabel01030815083D

  4  3  0  0  0  0  0  0  0  0999 V2000
    0.5788    0.0124    0.1370 C   0  0  0  0  0
   -0.5788   -0.0124   -0.1371 C   0  0  0  0  0
    1.6143    0.0346    0.3825 H   0  0  0  0  0
   -1.6143   -0.0345   -0.3824 H   0  0  0  0  0
  1  2  3  0  0  0
  1  3  1  0  0  0
  2  4  1  0  0  0
M  END
