Butan-1-amine
 OpenBabel01030815083D

 16 15  0  0  0  0  0  0  0  0999 V2000
    2.2861    0.5732   -0.0818 C   0  0  0  0  0
    1.1207   -0.3850    0.0181 C   0  0  0  0  0
   -0.2093    0.3455   -0.0814 C   0  0  0  0  0
   -1.3745   -0.6321    0.0210 C   0  0  0  0  0
   -2.6673    0.0689   -0.1421 N   0  0  0  0  0
    2.2822    1.1174   -1.0356 H   0  0  0  0  0
    2.2646    1.3228    0.7206 H   0  0  0  0  0
    1.1741   -0.9465    0.9723 H   0  0  0  0  0
    1.1913   -1.1502   -0.7805 H   0  0  0  0  0
   -0.2587    0.9068   -1.0362 H   0  0  0  0  0
   -0.2746    1.1123    0.7176 H   0  0  0  0  0
   -1.3082   -1.1958    0.9778 H   0  0  0  0  0
   -1.3097   -1.3904   -0.7854 H   0  0  0  0  0
   -2.7487    0.7923    0.5421 H   0  0  0  0  0
   -3.4127   -0.5827   -0.0163 H   0  0  0  0  0
    3.2445    0.0434   -0.0102 H   0  0  0  0  0
  1  2  1  0  0  0
  1  6  1  0  0  0
  1  7  1  0  0  0
  1 16  1  0  0  0
  2  3  1  0  0  0
  2  8  1  0  0  0
  2  9  1  0  0  0
  3  4  1  0  0  0
  3 10  1  0  0  0
  3 11  1  0  0  0
  4  5  1  0  0  0
  4 12  1  0  0  0
  4 13  1  0  0  0
  5 14  1  0  0  0
  5 15  1  0  0  0
M  END
