Octan-1-amine
 OpenBabel01030815083D

 28 27  0  0  0  0  0  0  0  0999 V2000
    3.6030   -0.1399    0.0308 C   0  0  0  0  0
    2.2758    0.5975   -0.0480 C   0  0  0  0  0
    1.1016   -0.3654    0.0192 C   0  0  0  0  0
   -0.2247    0.3738   -0.0556 C   0  0  0  0  0
   -1.3986   -0.5898    0.0094 C   0  0  0  0  0
   -2.7247    0.1506   -0.0623 C   0  0  0  0  0
   -3.8936   -0.8260    0.0031 C   0  0  0  0  0
   -5.1835   -0.1140   -0.1319 N   0  0  0  0  0
    3.6712   -0.8812   -0.7901 H   0  0  0  0  0
    3.6510   -0.7300    0.9677 H   0  0  0  0  0
    4.7726    0.8157   -0.0380 C   0  0  0  0  0
    2.2278    1.1887   -0.9847 H   0  0  0  0  0
    2.2064    1.3383    0.7739 H   0  0  0  0  0
    1.1520   -0.9592    0.9542 H   0  0  0  0  0
    1.1702   -1.1039   -0.8050 H   0  0  0  0  0
   -0.2746    0.9683   -0.9902 H   0  0  0  0  0
   -0.2938    1.1115    0.7692 H   0  0  0  0  0
   -1.3461   -1.1872    0.9422 H   0  0  0  0  0
   -1.3301   -1.3251   -0.8177 H   0  0  0  0  0
   -2.7727    0.7476   -0.9953 H   0  0  0  0  0
   -2.7878    0.8868    0.7653 H   0  0  0  0  0
   -3.8290   -1.4264    0.9375 H   0  0  0  0  0
   -3.8318   -1.5528   -0.8319 H   0  0  0  0  0
   -5.2631    0.5804    0.5818 H   0  0  0  0  0
   -5.9315   -0.7676   -0.0343 H   0  0  0  0  0
    4.7516    1.5419    0.7855 H   0  0  0  0  0
    4.7740    1.3872   -0.9758 H   0  0  0  0  0
    5.7286    0.2802    0.0212 H   0  0  0  0  0
  1  2  1  0  0  0
  1  9  1  0  0  0
  1 10  1  0  0  0
  1 11  1  0  0  0
  2  3  1  0  0  0
  2 12  1  0  0  0
  2 13  1  0  0  0
  3  4  1  0  0  0
  3 14  1  0  0  0
  3 15  1  0  0  0
  4  5  1  0  0  0
  4 16  1  0  0  0
  4 17  1  0  0  0
  5  6  1  0  0  0
  5 18  1  0  0  0
  5 19  1  0  0  0
  6  7  1  0  0  0
  6 20  1  0  0  0
  6 21  1  0  0  0
  7  8  1  0  0  0
  7 22  1  0  0  0
  7 23  1  0  0  0
  8 24  1  0  0  0
  8 25  1  0  0  0
 11 26  1  0  0  0
 11 27  1  0  0  0
 11 28  1  0  0  0
M  END
