Pentane-1,5-diamine
 OpenBabel01030815083D

 21 20  0  0  0  0  0  0  0  0999 V2000
    2.5394   -0.1361   -0.0224 C   0  0  0  0  0
    1.1964    0.5832    0.0375 C   0  0  0  0  0
    0.0501   -0.4157    0.0468 C   0  0  0  0  0
   -1.2951    0.2910    0.1045 C   0  0  0  0  0
   -2.4366   -0.7198    0.1123 C   0  0  0  0  0
    3.6579    0.8306    0.0377 N   0  0  0  0  0
   -3.7433   -0.0373    0.2367 N   0  0  0  0  0
    2.5782   -0.7835   -0.9263 H   0  0  0  0  0
    2.6477   -0.8170    0.8459 H   0  0  0  0  0
    1.0868    1.2716   -0.8256 H   0  0  0  0  0
    1.1429    1.2264    0.9392 H   0  0  0  0  0
    0.1539   -1.1026    0.9110 H   0  0  0  0  0
    0.1016   -1.0613   -0.8534 H   0  0  0  0  0
   -1.3939    0.9801   -0.7593 H   0  0  0  0  0
   -1.3439    0.9351    1.0057 H   0  0  0  0  0
   -2.3383   -1.4011    0.9816 H   0  0  0  0  0
   -2.3723   -1.3651   -0.7917 H   0  0  0  0  0
    3.5791    1.4862   -0.7119 H   0  0  0  0  0
    4.5221    0.3391   -0.0497 H   0  0  0  0  0
   -4.4740   -0.7159    0.1945 H   0  0  0  0  0
   -3.8586    0.6122   -0.5134 H   0  0  0  0  0
  1  2  1  0  0  0
  1  6  1  0  0  0
  1  8  1  0  0  0
  1  9  1  0  0  0
  2  3  1  0  0  0
  2 10  1  0  0  0
  2 11  1  0  0  0
  3  4  1  0  0  0
  3 12  1  0  0  0
  3 13  1  0  0  0
  4  5  1  0  0  0
  4 14  1  0  0  0
  4 15  1  0  0  0
  5  7  1  0  0  0
  5 16  1  0  0  0
  5 17  1  0  0  0
  6 18  1  0  0  0
  6 19  1  0  0  0
  7 20  1  0  0  0
  7 21  1  0  0  0
M  END
