1H-Azepine
 OpenBabel01030815083D

 14 14  0  0  0  0  0  0  0  0999 V2000
    0.6061    1.3744    0.4725 N   0  0  0  0  0
    1.5180    0.4015   -0.0684 C   0  0  0  0  0
    1.2669   -0.9115   -0.1633 C   0  0  0  0  0
    0.0335   -1.5835    0.1979 C   0  0  0  0  0
   -1.1914   -1.0436    0.1984 C   0  0  0  0  0
   -1.5275    0.3203   -0.1622 C   0  0  0  0  0
   -0.7278    1.3914   -0.0674 C   0  0  0  0  0
    2.5079    0.7923   -0.3443 H   0  0  0  0  0
    2.0611   -1.5682   -0.5402 H   0  0  0  0  0
    0.1526   -2.6382    0.4779 H   0  0  0  0  0
   -2.0501   -1.6673    0.4786 H   0  0  0  0  0
   -2.5484    0.4638   -0.5383 H   0  0  0  0  0
   -1.1074    2.3858   -0.3425 H   0  0  0  0  0
    1.0066    2.2828    0.4011 H   0  0  0  0  0
  1  2  1  0  0  0
  7  1  1  0  0  0
  1 14  1  0  0  0
  2  3  2  0  0  0
  2  8  1  0  0  0
  3  4  1  0  0  0
  3  9  1  0  0  0
  4  5  2  0  0  0
  4 10  1  0  0  0
  5  6  1  0  0  0
  5 11  1  0  0  0
  6  7  2  0  0  0
  6 12  1  0  0  0
  7 13  1  0  0  0
M  END
