Propan-2-amine
 OpenBabel01030815083D

 13 12  0  0  0  0  0  0  0  0999 V2000
    1.4882   -0.5609    0.1302 N   0  0  0  0  0
    0.0198   -0.3747    0.2579 C   0  0  0  0  0
    1.9249   -0.3525    1.0038 H   0  0  0  0  0
    1.8481    0.0561   -0.5686 H   0  0  0  0  0
   -0.3189   -1.1534    0.9852 H   0  0  0  0  0
   -0.6536   -0.6281   -1.0845 C   0  0  0  0  0
   -0.3678    1.0019    0.7908 C   0  0  0  0  0
   -1.7462   -0.5801   -0.9856 H   0  0  0  0  0
   -0.3621    0.1156   -1.8395 H   0  0  0  0  0
   -0.4031   -1.6191   -1.4851 H   0  0  0  0  0
    0.0799    1.2024    1.7736 H   0  0  0  0  0
   -1.4563    1.0841    0.9073 H   0  0  0  0  0
   -0.0529    1.8087    0.1143 H   0  0  0  0  0
  1  2  1  0  0  0
  1  3  1  0  0  0
  1  4  1  0  0  0
  2  5  1  0  0  0
  2  6  1  0  0  0
  2  7  1  0  0  0
  6  8  1  0  0  0
  6  9  1  0  0  0
  6 10  1  0  0  0
  7 11  1  0  0  0
  7 12  1  0  0  0
  7 13  1  0  0  0
M  END
