Cyclohexanamine
 OpenBabel01030815083D

 20 20  0  0  0  0  0  0  0  0999 V2000
    0.0631    1.2351    1.1437 C   0  0  0  0  0
    1.2875    0.6738    0.4396 C   0  0  0  0  0
    1.1368   -0.8183    0.1928 C   0  0  0  0  0
   -0.1365   -1.1631   -0.5935 C   0  0  0  0  0
   -1.3635   -0.5335    0.0748 C   0  0  0  0  0
   -1.1979    0.9545    0.3431 C   0  0  0  0  0
    0.1804    2.3245    1.3003 H   0  0  0  0  0
   -0.0254    0.7915    2.1556 H   0  0  0  0  0
    2.1943    0.8638    1.0460 H   0  0  0  0  0
    1.4522    1.2092   -0.5172 H   0  0  0  0  0
    1.1061   -1.3493    1.1654 H   0  0  0  0  0
   -2.2667   -0.7059   -0.5430 H   0  0  0  0  0
   -1.5481   -1.0600    1.0329 H   0  0  0  0  0
   -2.0836    1.3339    0.8891 H   0  0  0  0  0
   -1.1741    1.5213   -0.6096 H   0  0  0  0  0
    2.0331   -1.2077   -0.3303 H   0  0  0  0  0
   -0.0777   -0.8067   -2.0334 N   0  0  0  0  0
   -0.2636   -2.2746   -0.5839 H   0  0  0  0  0
    0.7617   -1.1756   -2.4296 H   0  0  0  0  0
   -0.0779    0.1871   -2.1428 H   0  0  0  0  0
  1  2  1  0  0  0
  6  1  1  0  0  0
  1  7  1  0  0  0
  1  8  1  0  0  0
  2  3  1  0  0  0
  2  9  1  0  0  0
  2 10  1  0  0  0
  3  4  1  0  0  0
  3 11  1  0  0  0
  3 16  1  0  0  0
  5  4  1  0  0  0
  4 17  1  0  0  0
  4 18  1  0  0  0
  5  6  1  0  0  0
  5 12  1  0  0  0
  5 13  1  0  0  0
  6 14  1  0  0  0
  6 15  1  0  0  0
 17 19  1  0  0  0
 17 20  1  0  0  0
M  END
