N-Ethylethanamine
 OpenBabel01030815083D

 16 15  0  0  0  0  0  0  0  0999 V2000
    1.0495    0.7471   -0.3584 C   0  0  0  0  0
    0.0951   -0.3263    0.0171 N   0  0  0  0  0
   -1.3222    0.0651   -0.1879 C   0  0  0  0  0
    2.4724    0.3519   -0.0185 C   0  0  0  0  0
    0.7972    1.7176    0.1235 H   0  0  0  0  0
    0.9430    0.9095   -1.4494 H   0  0  0  0  0
    0.2403   -0.5933    0.9689 H   0  0  0  0  0
   -1.5605    1.0389    0.2943 H   0  0  0  0  0
   -2.2615   -1.0102    0.3198 C   0  0  0  0  0
   -1.4626    0.2193   -1.2763 H   0  0  0  0  0
    2.6199    0.2232    1.0627 H   0  0  0  0  0
    3.1767    1.1250   -0.3526 H   0  0  0  0  0
    2.7668   -0.5890   -0.5023 H   0  0  0  0  0
   -2.0764   -1.9807   -0.1595 H   0  0  0  0  0
   -3.3050   -0.7383    0.1140 H   0  0  0  0  0
   -2.1726   -1.1597    1.4048 H   0  0  0  0  0
  1  2  1  0  0  0
  1  4  1  0  0  0
  1  5  1  0  0  0
  1  6  1  0  0  0
  2  3  1  0  0  0
  2  7  1  0  0  0
  3  8  1  0  0  0
  3  9  1  0  0  0
  3 10  1  0  0  0
  4 11  1  0  0  0
  4 12  1  0  0  0
  4 13  1  0  0  0
  9 14  1  0  0  0
  9 15  1  0  0  0
  9 16  1  0  0  0
M  END
