Methanamine
 OpenBabel01030815083D

  7  6  0  0  0  0  0  0  0  0999 V2000
    0.8344   -0.3886    0.0126 N   0  0  0  0  0
   -0.5678    0.0457   -0.0300 C   0  0  0  0  0
    1.2457   -0.1168    0.8811 H   0  0  0  0  0
    1.3434    0.0411   -0.7314 H   0  0  0  0  0
   -1.1230   -0.4442    0.7809 H   0  0  0  0  0
   -1.0152   -0.2694   -0.9819 H   0  0  0  0  0
   -0.7175    1.1322    0.0686 H   0  0  0  0  0
  1  2  1  0  0  0
  1  3  1  0  0  0
  1  4  1  0  0  0
  2  5  1  0  0  0
  2  6  1  0  0  0
  2  7  1  0  0  0
M  END
