Morpholine
 OpenBabel01030815083D

 15 15  0  0  0  0  0  0  0  0999 V2000
    1.4324    0.4017   -0.0629 C   0  0  0  0  0
    0.2943    1.0322   -0.8712 C   0  0  0  0  0
    0.9888   -0.1176    1.1773 O   0  0  0  0  0
   -0.0542   -1.0649    1.0392 C   0  0  0  0  0
   -1.2582   -0.4995    0.2797 C   0  0  0  0  0
   -0.8145    0.0560   -1.0243 N   0  0  0  0  0
    2.1814    1.1498    0.2446 H   0  0  0  0  0
   -0.0414    1.9768   -0.3920 H   0  0  0  0  0
    0.3344   -1.9831    0.5582 H   0  0  0  0  0
   -1.7853    0.2564    0.9004 H   0  0  0  0  0
    0.6505    1.2988   -1.8843 H   0  0  0  0  0
   -0.3036   -1.3015    2.0866 H   0  0  0  0  0
   -1.9881   -1.3048    0.0717 H   0  0  0  0  0
   -1.5848    0.4906   -1.4849 H   0  0  0  0  0
    1.9482   -0.3910   -0.6382 H   0  0  0  0  0
  1  2  1  0  0  0
  1  3  1  0  0  0
  1  7  1  0  0  0
  1 15  1  0  0  0
  2  6  1  0  0  0
  2  8  1  0  0  0
  2 11  1  0  0  0
  3  4  1  0  0  0
  4  5  1  0  0  0
  4  9  1  0  0  0
  4 12  1  0  0  0
  5  6  1  0  0  0
  5 10  1  0  0  0
  5 13  1  0  0  0
  6 14  1  0  0  0
M  END
