N,N,N',N'-Tetramethylethane-1,2-diamine
 OpenBabel01030815083D

 24 23  0  0  0  0  0  0  0  0999 V2000
    0.7609   -0.0105    0.1672 C   0  0  0  0  0
   -0.7578    0.0164   -0.1781 C   0  0  0  0  0
   -1.3704    1.2557    0.3356 N   0  0  0  0  0
    1.3679   -1.2624   -0.3221 N   0  0  0  0  0
    1.7762   -2.2349    0.6923 C   0  0  0  0  0
    2.2406   -1.1566   -1.4920 C   0  0  0  0  0
   -2.2886    1.1149    1.4665 C   0  0  0  0  0
   -1.7312    2.2705   -0.6552 C   0  0  0  0  0
    0.9017    0.0934    1.2714 H   0  0  0  0  0
    1.2690    0.8793   -0.2805 H   0  0  0  0  0
   -1.2619   -0.8835    0.2531 H   0  0  0  0  0
   -0.8985   -0.0681   -1.2842 H   0  0  0  0  0
    0.9567   -2.3955    1.4290 H   0  0  0  0  0
    2.6882   -1.9280    1.2609 H   0  0  0  0  0
    1.7507   -0.5543   -2.2902 H   0  0  0  0  0
    2.4401   -2.1675   -1.9155 H   0  0  0  0  0
   -2.4953    2.1111    1.9203 H   0  0  0  0  0
   -1.8347    0.4779    2.2591 H   0  0  0  0  0
   -0.8868    2.4443   -1.3601 H   0  0  0  0  0
   -1.9467    3.2402   -0.1511 H   0  0  0  0  0
    1.9916   -3.2192    0.2172 H   0  0  0  0  0
    3.2283   -0.6834   -1.2686 H   0  0  0  0  0
   -3.2710    0.6608    1.1879 H   0  0  0  0  0
   -2.6291    1.9993   -1.2628 H   0  0  0  0  0
  1  2  1  0  0  0
  1  4  1  0  0  0
  1  9  1  0  0  0
  1 10  1  0  0  0
  2  3  1  0  0  0
  2 11  1  0  0  0
  2 12  1  0  0  0
  3  7  1  0  0  0
  3  8  1  0  0  0
  4  5  1  0  0  0
  4  6  1  0  0  0
  5 13  1  0  0  0
  5 14  1  0  0  0
  5 21  1  0  0  0
  6 15  1  0  0  0
  6 16  1  0  0  0
  6 22  1  0  0  0
  7 17  1  0  0  0
  7 18  1  0  0  0
  7 23  1  0  0  0
  8 19  1  0  0  0
  8 20  1  0  0  0
  8 24  1  0  0  0
M  END
