Pyrrolidine
 OpenBabel01030815083D

 14 14  0  0  0  0  0  0  0  0999 V2000
    0.3880    1.1129    0.0674 C   0  0  0  0  0
    1.1632   -0.2012   -0.0177 C   0  0  0  0  0
    0.1242   -1.3238    0.0264 C   0  0  0  0  0
   -1.0918    0.7388    0.1744 C   0  0  0  0  0
   -1.2202   -0.7089   -0.1457 N   0  0  0  0  0
    0.5791    1.7458   -0.8192 H   0  0  0  0  0
    0.7097    1.7187    0.9339 H   0  0  0  0  0
    1.8892   -0.2980    0.8099 H   0  0  0  0  0
    1.7668   -0.2483   -0.9431 H   0  0  0  0  0
    0.1228   -1.8367    1.0070 H   0  0  0  0  0
    0.3115   -2.1047   -0.7337 H   0  0  0  0  0
   -1.7342    1.3556   -0.4808 H   0  0  0  0  0
   -1.4715    0.8781    1.2046 H   0  0  0  0  0
   -1.5368   -0.8282   -1.0833 H   0  0  0  0  0
  1  2  1  0  0  0
  1  4  1  0  0  0
  1  6  1  0  0  0
  1  7  1  0  0  0
  2  3  1  0  0  0
  2  8  1  0  0  0
  2  9  1  0  0  0
  3  5  1  0  0  0
  3 10  1  0  0  0
  3 11  1  0  0  0
  4  5  1  0  0  0
  4 12  1  0  0  0
  4 13  1  0  0  0
  5 14  1  0  0  0
M  END
