2-Methyl-2-tert-butoxypropane
 OpenBabel01030815093D

 27 26  0  0  0  0  0  0  0  0999 V2000
    0.9824   -0.2253    0.7760 C   0  0  0  0  0
    2.4529   -0.6690    0.6552 C   0  0  0  0  0
    2.5350   -1.7096    0.3149 H   0  0  0  0  0
    3.0089   -0.0437   -0.0558 H   0  0  0  0  0
    2.9591   -0.5964    1.6266 H   0  0  0  0  0
    0.2682   -1.1604    1.7602 C   0  0  0  0  0
    0.1650   -2.1743    1.3519 H   0  0  0  0  0
    0.8285   -1.2344    2.7011 H   0  0  0  0  0
   -0.7427   -0.7966    2.0050 H   0  0  0  0  0
    0.9449    1.2078    1.3132 C   0  0  0  0  0
    1.3863    1.2549    2.3167 H   0  0  0  0  0
    1.5089    1.8941    0.6672 H   0  0  0  0  0
   -0.0851    1.5939    1.3815 H   0  0  0  0  0
    0.5085   -0.3704   -0.5701 O   0  0  0  0  0
   -0.7842    0.0811   -0.9980 C   0  0  0  0  0
   -1.9547   -0.4704   -0.1799 C   0  0  0  0  0
   -1.9542   -1.5687   -0.1667 H   0  0  0  0  0
   -1.9200   -0.1301    0.8678 H   0  0  0  0  0
   -2.9112   -0.1419   -0.6059 H   0  0  0  0  0
   -0.8844    1.6100   -1.0697 C   0  0  0  0  0
   -0.9836    2.0577   -0.0678 H   0  0  0  0  0
    0.0023    2.0514   -1.5429 H   0  0  0  0  0
   -1.7618    1.9141   -1.6546 H   0  0  0  0  0
   -0.8720   -0.4850   -2.4283 C   0  0  0  0  0
   -0.0772   -0.0851   -3.0715 H   0  0  0  0  0
   -0.7859   -1.5796   -2.4381 H   0  0  0  0  0
   -1.8340   -0.2241   -2.8882 H   0  0  0  0  0
  1  2  1  0  0  0
  1  6  1  0  0  0
  1 10  1  0  0  0
  1 14  1  0  0  0
  2  3  1  0  0  0
  2  4  1  0  0  0
  2  5  1  0  0  0
  6  7  1  0  0  0
  6  8  1  0  0  0
  6  9  1  0  0  0
 10 11  1  0  0  0
 10 12  1  0  0  0
 10 13  1  0  0  0
 14 15  1  0  0  0
 15 16  1  0  0  0
 15 20  1  0  0  0
 15 24  1  0  0  0
 16 17  1  0  0  0
 16 18  1  0  0  0
 16 19  1  0  0  0
 20 21  1  0  0  0
 20 22  1  0  0  0
 20 23  1  0  0  0
 24 25  1  0  0  0
 24 26  1  0  0  0
 24 27  1  0  0  0
M  END
