Oxacyclopentane
 OpenBabel01030815093D

 13 13  0  0  0  0  0  0  0  0999 V2000
   -0.0339    1.0934   -0.0349 C   0  0  0  0  0
   -1.3254    0.2752    0.0238 C   0  0  0  0  0
   -1.0080   -1.1016   -0.1320 O   0  0  0  0  0
    0.3914   -1.2959    0.0239 C   0  0  0  0  0
    1.0921    0.0629   -0.0375 C   0  0  0  0  0
    0.0438    1.7856    0.8226 H   0  0  0  0  0
   -0.0011    1.7322   -0.9359 H   0  0  0  0  0
   -2.0347    0.5051   -0.7875 H   0  0  0  0  0
   -1.8588    0.3884    0.9837 H   0  0  0  0  0
    0.6830   -1.9836   -0.7862 H   0  0  0  0  0
    0.5518   -1.8153    0.9847 H   0  0  0  0  0
    1.7212    0.1523   -0.9415 H   0  0  0  0  0
    1.7787    0.2013    0.8168 H   0  0  0  0  0
  1  2  1  0  0  0
  5  1  1  0  0  0
  1  6  1  0  0  0
  1  7  1  0  0  0
  2  3  1  0  0  0
  2  8  1  0  0  0
  2  9  1  0  0  0
  3  4  1  0  0  0
  4  5  1  0  0  0
  4 10  1  0  0  0
  4 11  1  0  0  0
  5 12  1  0  0  0
  5 13  1  0  0  0
M  END
